*
*
*
*                       LINUX           Tue Mar 26 21:00:30 2024
*
*
*
*  PROGRAM  advgen
*
*  Name           : advgen - Quantus - (64-bit)
*  Version        : 20.1.2-p025
*  Build Date     : Thu Sep 3 13:54:09 PDT 2020
*
*  HSPICE LIBRARY
*
*!LENGTH_UNITS METERS
*
*
*

*
.SUBCKT lab2_decoder vdd! gnd! A B Y0 Y1 Y2 Y3
*
*
*  caps2d version: 10
*
*
*       TRANSISTOR CARDS
*
*
MI32/avD1_1	I32/avC6	A#13	avC14#6	gnd!#1
+ nmos1v#20ivpcell#20gpdk090	L=1e-07	W=4.8e-07
+ AD=2.88e-14	AS=1.344e-13	PD=6e-07	PS=1.52e-06	simW=4.8e-07 fw=4.8e-07
MI32/avD1_2	gnd!#33	B#15	I32/avC6	gnd!#1
+ nmos1v#20ivpcell#20gpdk090	L=1e-07	W=4.8e-07
+ AD=1.344e-13	AS=2.88e-14	PD=1.52e-06	PS=6e-07	simW=4.8e-07 fw=4.8e-07
MI31/avD1_1	I31/avC6	A#8	avC13#6	gnd!#1
+ nmos1v#20ivpcell#20gpdk090	L=1e-07	W=4.8e-07
+ AD=2.88e-14	AS=1.344e-13	PD=6e-07	PS=1.52e-06	simW=4.8e-07 fw=4.8e-07
MI31/avD1_2	gnd!#39	avC9#18	I31/avC6	gnd!#1
+ nmos1v#20ivpcell#20gpdk090	L=1e-07	W=4.8e-07
+ AD=1.344e-13	AS=2.88e-14	PD=1.52e-06	PS=6e-07	simW=4.8e-07 fw=4.8e-07
MI30/avD1_1	I30/avC6	avC11#16	avC12#6	gnd!#1
+ nmos1v#20ivpcell#20gpdk090	L=1e-07	W=4.8e-07
+ AD=2.88e-14	AS=1.344e-13	PD=6e-07	PS=1.52e-06	simW=4.8e-07 fw=4.8e-07
MI30/avD1_2	gnd!#45	B#10	I30/avC6	gnd!#1
+ nmos1v#20ivpcell#20gpdk090	L=1e-07	W=4.8e-07
+ AD=1.344e-13	AS=2.88e-14	PD=1.52e-06	PS=6e-07	simW=4.8e-07 fw=4.8e-07
MI29/avD1_1	I29/avC6	avC11#11	avC10#6	gnd!#1
+ nmos1v#20ivpcell#20gpdk090	L=1e-07	W=4.8e-07
+ AD=2.88e-14	AS=1.344e-13	PD=6e-07	PS=1.52e-06	simW=4.8e-07 fw=4.8e-07
MI29/avD1_2	gnd!#51	avC9#13	I29/avC6	gnd!#1
+ nmos1v#20ivpcell#20gpdk090	L=1e-07	W=4.8e-07
+ AD=1.344e-13	AS=2.88e-14	PD=1.52e-06	PS=6e-07	simW=4.8e-07 fw=4.8e-07
MI28/avD1_1	Y3#1	avC14#14	gnd!#30	gnd!#1
+ nmos1v#20ivpcell#20gpdk090	L=1e-07	W=4.8e-07
+ AD=1.344e-13	AS=1.344e-13	PD=1.52e-06	PS=1.52e-06	simW=4.8e-07 fw=4.8e-07
MI27/avD1_1	Y2#1	avC13#14	gnd!#36	gnd!#1
+ nmos1v#20ivpcell#20gpdk090	L=1e-07	W=4.8e-07
+ AD=1.344e-13	AS=1.344e-13	PD=1.52e-06	PS=1.52e-06	simW=4.8e-07 fw=4.8e-07
MI26/avD1_1	Y1#1	avC12#14	gnd!#42	gnd!#1
+ nmos1v#20ivpcell#20gpdk090	L=1e-07	W=4.8e-07
+ AD=1.344e-13	AS=1.344e-13	PD=1.52e-06	PS=1.52e-06	simW=4.8e-07 fw=4.8e-07
MI25/avD1_1	Y0#1	avC10#14	gnd!#48	gnd!#1
+ nmos1v#20ivpcell#20gpdk090	L=1e-07	W=4.8e-07
+ AD=1.344e-13	AS=1.344e-13	PD=1.52e-06	PS=1.52e-06	simW=4.8e-07 fw=4.8e-07
MI23/avD1_1	avC9#6	B#5	gnd!#54	gnd!#1
+ nmos1v#20ivpcell#20gpdk090	L=1e-07	W=4.8e-07
+ AD=1.344e-13	AS=1.344e-13	PD=1.52e-06	PS=1.52e-06	simW=4.8e-07 fw=4.8e-07
MI24/avD1_1	avC11#6	A#5	gnd!#57	gnd!#1
+ nmos1v#20ivpcell#20gpdk090	L=1e-07	W=4.8e-07
+ AD=1.344e-13	AS=1.344e-13	PD=1.52e-06	PS=1.52e-06	simW=4.8e-07 fw=4.8e-07
MI32/avD7_1	avC14	A#11	vdd!#12	vdd!#1
+ pmos1v#20ivpcell#20gpdk090	L=1e-07	W=9.6e-07
+ AD=1.536e-13	AS=2.688e-13	PD=1.28e-06	PS=2.48e-06	simW=9.6e-07 fw=9.6e-07
MI32/avD7_2	vdd!#9	B#14	avC14	vdd!#1	pmos1v#20ivpcell#20gpdk090
+ L=1e-07	W=9.6e-07
+ AD=2.688e-13	AS=1.536e-13	PD=2.48e-06	PS=1.28e-06
+ simW=9.6e-07 fw=9.6e-07
MI31/avD7_1	avC13	A#6	vdd!#26	vdd!#1
+ pmos1v#20ivpcell#20gpdk090	L=1e-07	W=9.6e-07
+ AD=1.536e-13	AS=2.688e-13	PD=1.28e-06	PS=2.48e-06	simW=9.6e-07 fw=9.6e-07
MI31/avD7_2	vdd!#22	avC9#17	avC13	vdd!#1
+ pmos1v#20ivpcell#20gpdk090	L=1e-07	W=9.6e-07
+ AD=2.688e-13	AS=1.536e-13	PD=2.48e-06	PS=1.28e-06	simW=9.6e-07 fw=9.6e-07
MI30/avD7_1	avC12	avC11#14	vdd!#40	vdd!#1
+ pmos1v#20ivpcell#20gpdk090	L=1e-07	W=9.6e-07
+ AD=1.536e-13	AS=2.688e-13	PD=1.28e-06	PS=2.48e-06	simW=9.6e-07 fw=9.6e-07
MI30/avD7_2	vdd!#36	B#9	avC12	vdd!#1
+ pmos1v#20ivpcell#20gpdk090	L=1e-07	W=9.6e-07
+ AD=2.688e-13	AS=1.536e-13	PD=2.48e-06	PS=1.28e-06	simW=9.6e-07 fw=9.6e-07
MI29/avD7_1	avC10	avC11#9	vdd!#54	vdd!#1
+ pmos1v#20ivpcell#20gpdk090	L=1e-07	W=9.6e-07
+ AD=1.536e-13	AS=2.688e-13	PD=1.28e-06	PS=2.48e-06	simW=9.6e-07 fw=9.6e-07
MI29/avD7_2	vdd!#50	avC9#12	avC10	vdd!#1
+ pmos1v#20ivpcell#20gpdk090	L=1e-07	W=9.6e-07
+ AD=2.688e-13	AS=1.536e-13	PD=2.48e-06	PS=1.28e-06	simW=9.6e-07 fw=9.6e-07
MI28/avD7_1	Y3#4	avC14#12	vdd!#6	vdd!#1
+ pmos1v#20ivpcell#20gpdk090	L=1e-07	W=9.6e-07
+ AD=2.688e-13	AS=2.688e-13	PD=2.48e-06	PS=2.48e-06	simW=9.6e-07 fw=9.6e-07
MI27/avD7_1	Y2#4	avC13#12	vdd!#17	vdd!#1
+ pmos1v#20ivpcell#20gpdk090	L=1e-07	W=9.6e-07
+ AD=2.688e-13	AS=2.688e-13	PD=2.48e-06	PS=2.48e-06	simW=9.6e-07 fw=9.6e-07
MI26/avD7_1	Y1#4	avC12#12	vdd!#31	vdd!#1
+ pmos1v#20ivpcell#20gpdk090	L=1e-07	W=9.6e-07
+ AD=2.688e-13	AS=2.688e-13	PD=2.48e-06	PS=2.48e-06	simW=9.6e-07 fw=9.6e-07
MI25/avD7_1	Y0#4	avC10#12	vdd!#45	vdd!#1
+ pmos1v#20ivpcell#20gpdk090	L=1e-07	W=9.6e-07
+ AD=2.688e-13	AS=2.688e-13	PD=2.48e-06	PS=2.48e-06	simW=9.6e-07 fw=9.6e-07
MI23/avD7_1	avC9	B#3	vdd!#59	vdd!#1
+ pmos1v#20ivpcell#20gpdk090	L=1e-07	W=9.6e-07
+ AD=2.688e-13	AS=2.688e-13	PD=2.48e-06	PS=2.48e-06	simW=9.6e-07 fw=9.6e-07
MI24/avD7_1	avC11#2	A#3	vdd!#65	vdd!#1
+ pmos1v#20ivpcell#20gpdk090	L=1e-07	W=9.6e-07
+ AD=2.688e-13	AS=2.688e-13	PD=2.48e-06	PS=2.48e-06	simW=9.6e-07 fw=9.6e-07
*
*
*       RESISTOR AND CAP/DIODE CARDS
*
Rh1	avC10#11	avC10#4	    1.6158	$mt2
+ $X=4.213 $Y=1.39
Rh2	avC11#13	avC11	    0.4673	$mt2	$X=1.948 $Y=1.85
Rh3	avC11#13	avC11#18	    0.7301	$mt2
+ $X=4.5695 $Y=1.85
Rh4	avC12#11	avC12#4	    1.6209	$mt2	$X=7.39 $Y=1.39
Rh5	avC9#14	avC9#9	    1.4619	$mt2	$X=7.493 $Y=0.93
Rh6	avC9#9	avC9#5	    1.8800	$mt2	$X=3.2855 $Y=0.93
Rh7	avC13#11	avC13#4	    1.6077	$mt2
+ $X=10.5155 $Y=1.39
Rh8	A#10	A#2	    2.1335	$mt2	$X=4.698 $Y=2.31
Rh9	A#10	A#15	    0.6470	$mt2	$X=10.7495 $Y=2.31
Rh10	B#11	B#6	    1.4547	$mt2	$X=10.6105 $Y=0.47
Rh11	B#6	B#2	    1.4443	$mt2	$X=4.3825 $Y=0.47
Rh12	avC14#11	avC14#4	    1.6143	$mt2
+ $X=13.6975 $Y=1.39
Ri1	A#1	A	2.997e-02	$mt1	$X=0.3725 $Y=1.1325
Ri2	A	A#2	    2.0231	$mt1	$X=0.075 $Y=1.7625
Ri3	avC11	avC11#3	    1.4569	$mt1	$X=0.81 $Y=1.85
Ri5	avC11#3	avC11#5	    0.4633	$mt1
+ $X=0.75 $Y=1.338
Ri6	avC11#5	avC11#7	    0.4533	$mt1
+ $X=0.75 $Y=0.9505
Ri8	avC11#2	avC11#3	    5.0000	$mt1
+ $X=0.75 $Y=1.895
Ri9	avC11#6	avC11#7	   15.0000	$mt1	$X=0.75 $Y=0.52
Ri10	B#1	B	2.730e-02	$mt1	$X=1.8775 $Y=1.1325
Ri11	B	B#2	    1.8411	$mt1	$X=1.225 $Y=0.76
Ri13	avC9#2	avC9#4	    0.4633	$mt1	$X=2.245 $Y=1.338
Ri14	avC9#4	avC9#5	    0.1644	$mt1	$X=2.245 $Y=1.1005
Ri15	avC9#5	avC9#7	    0.2577	$mt1	$X=2.245 $Y=0.78
Ri17	avC9	avC9#2	    5.0000	$mt1	$X=2.245 $Y=1.895
Ri18	avC9#6	avC9#7	   15.0000	$mt1	$X=2.245 $Y=0.52
Ri19	avC11#10	avC11#12	   10.1490	$mt1
+ $X=3.298 $Y=1.2225
Ri20	avC11#12	avC11#13	    1.8097	$mt1
+ $X=2.96 $Y=1.507
Ri22	avC10#2	avC10#4	    0.2800	$mt1
+ $X=3.74 $Y=1.892
Ri23	avC10#4	avC10#5	    0.1177	$mt1
+ $X=3.74 $Y=1.255
Ri24	avC10#5	avC10#7	    0.6727	$mt1
+ $X=3.493 $Y=0.97
Ri26	avC10	avC10#2	    5.0000	$mt1	$X=3.74 $Y=1.915
Ri27	avC10#6	avC10#7	   15.0000	$mt1
+ $X=3.29 $Y=0.525
Ri28	avC9#9	avC9#10	    1.5178	$mt1	$X=4.325 $Y=1.0595
Ri29	avC9#10	avC9#11	   10.1306	$mt1
+ $X=4.1475 $Y=1.2
Ri30	avC10#9	avC10#10	2.730e-02	$mt1
+ $X=5.0275 $Y=1.1325
Ri31	avC10#10	avC10#11	    1.5750	$mt1
+ $X=4.68 $Y=1.3025
Ri32	Y0	Y0#2	    0.4300	$mt1	$X=5.395 $Y=0.933
Ri34	Y0	Y0#5	    0.4750	$mt1	$X=5.395 $Y=1.337
Ri36	Y0#1	Y0#2	   15.0000	$mt1	$X=5.395 $Y=0.52
Ri37	Y0#4	Y0#5	    5.0000	$mt1	$X=5.395 $Y=1.895
Ri38	avC11#15	avC11#17	   10.1490	$mt1
+ $X=6.463 $Y=1.2225
Ri39	avC11#17	avC11#18	    1.8070	$mt1
+ $X=6.125 $Y=1.5045
Ri41	avC12#2	avC12#4	    0.2827	$mt1
+ $X=6.905 $Y=1.8895
Ri42	avC12#4	avC12#5	    0.1144	$mt1
+ $X=6.905 $Y=1.2525
Ri43	avC12#5	avC12#7	    0.6727	$mt1
+ $X=6.658 $Y=0.97
Ri45	avC12	avC12#2	    5.0000	$mt1	$X=6.905 $Y=1.915
Ri46	avC12#6	avC12#7	   15.0000	$mt1
+ $X=6.455 $Y=0.525
Ri47	B#6	B#7	    1.6995	$mt1	$X=7.4825 $Y=0.8295
Ri48	B#7	B#8	   10.1306	$mt1	$X=7.305 $Y=1.2
Ri49	avC12#9	avC12#10	2.730e-02	$mt1
+ $X=8.2075 $Y=1.1325
Ri50	avC12#10	avC12#11	    1.5698	$mt1	$X=7.87 $Y=1.3
Ri51	Y1	Y1#2	    0.4300	$mt1	$X=8.575 $Y=0.933
Ri53	Y1	Y1#5	    0.4750	$mt1	$X=8.575 $Y=1.337
Ri55	Y1#1	Y1#2	   15.0000	$mt1	$X=8.575 $Y=0.52
Ri56	Y1#4	Y1#5	    5.0000	$mt1	$X=8.575 $Y=1.895
Ri57	A#7	A#9	   10.1490	$mt1	$X=9.618 $Y=1.2225
Ri58	A#9	A#10	    1.9784	$mt1	$X=9.3225 $Y=1.7595
Ri60	avC13#2	avC13#4	    0.2800	$mt1
+ $X=10.06 $Y=1.892
Ri61	avC13#4	avC13#5	    0.1156	$mt1
+ $X=10.06 $Y=1.2525
Ri62	avC13#5	avC13#7	    0.6727	$mt1
+ $X=9.813 $Y=0.97
Ri64	avC13	avC13#2	    5.0000	$mt1	$X=10.06 $Y=1.915
Ri65	avC13#6	avC13#7	   15.0000	$mt1
+ $X=9.61 $Y=0.525
Ri66	avC9#14	avC9#15	    1.5247	$mt1
+ $X=10.65 $Y=1.052
Ri67	avC9#15	avC9#16	   10.1306	$mt1
+ $X=10.4725 $Y=1.2
Ri68	avC13#9	avC13#10	2.730e-02	$mt1
+ $X=11.3475 $Y=1.1325
Ri69	avC13#10	avC13#11	    1.5802	$mt1
+ $X=10.9675 $Y=1.3025
Ri70	Y2	Y2#2	    0.4000	$mt1	$X=11.715 $Y=0.9105
Ri72	Y2	Y2#5	    0.4900	$mt1	$X=11.715 $Y=1.337
Ri74	Y2#1	Y2#2	   15.0000	$mt1	$X=11.715 $Y=0.52
Ri75	Y2#4	Y2#5	    5.0000	$mt1	$X=11.715 $Y=1.895
Ri76	A#12	A#14	   10.1490	$mt1	$X=12.758 $Y=1.2225
Ri77	A#14	A#15	    2.1386	$mt1	$X=12.1125 $Y=1.587
Ri79	avC14#2	avC14#4	    0.2800	$mt1
+ $X=13.2 $Y=1.892
Ri80	avC14#4	avC14#5	    0.1177	$mt1
+ $X=13.2 $Y=1.255
Ri81	avC14#5	avC14#7	    0.6727	$mt1
+ $X=12.953 $Y=0.97
Ri83	avC14	avC14#2	    5.0000	$mt1	$X=13.2 $Y=1.915
Ri84	avC14#6	avC14#7	   15.0000	$mt1
+ $X=12.75 $Y=0.525
Ri85	B#11	B#12	    1.6900	$mt1	$X=13.785 $Y=0.832
Ri86	B#12	B#13	   10.1306	$mt1	$X=13.6025 $Y=1.2
Ri87	avC14#9	avC14#10	2.730e-02	$mt1
+ $X=14.4825 $Y=1.1325
Ri88	avC14#10	avC14#11	    1.5723	$mt1
+ $X=14.135 $Y=1.3
Ri89	Y3	Y3#2	    0.4533	$mt1	$X=14.85 $Y=0.9505
Ri91	Y3	Y3#5	    0.4633	$mt1	$X=14.85 $Y=1.337
Ri93	Y3#1	Y3#2	   15.0000	$mt1	$X=14.85 $Y=0.52
Ri94	Y3#4	Y3#5	    5.0000	$mt1	$X=14.85 $Y=1.895
Ri95	vdd!#1	vdd!#2	   15.1005	$mt1	$X=14.523 $Y=2.88
Ri96	vdd!#2	vdd!#3	    0.1055	$mt1	$X=14.3325 $Y=2.88
Ri97	vdd!#3	vdd!#4	    0.4512	$mt1	$X=13.3775 $Y=2.88
Ri98	vdd!#4	vdd!#5	5.875e-02	$mt1	$X=13.3125 $Y=2.88
Ri99	vdd!#2	vdd!#7	    0.6183	$mt1	$X=14.43 $Y=2.5875
Ri101	vdd!#4	vdd!#10	    0.6300	$mt1	$X=13.62 $Y=2.5975
Ri103	vdd!#4	vdd!#13	    0.6300	$mt1	$X=12.78 $Y=2.5975
Ri105	vdd!#4	vdd!#15	    0.9062	$mt1	$X=12.0305 $Y=2.88
Ri106	vdd!#15	vdd!#16	    0.1005	$mt1
+ $X=11.388 $Y=2.88
Ri107	vdd!#16	vdd!#18	    0.6183	$mt1
+ $X=11.295 $Y=2.5875
Ri109	vdd!#16	vdd!#20	    0.1055	$mt1
+ $X=11.1975 $Y=2.88
Ri110	vdd!#20	vdd!#21	    0.4538	$mt1
+ $X=10.24 $Y=2.88
Ri111	vdd!#21	vdd!#23	    0.6300	$mt1
+ $X=10.48 $Y=2.5975
Ri113	vdd!#21	vdd!#25	5.875e-02	$mt1
+ $X=10.1725 $Y=2.88
Ri114	vdd!#21	vdd!#27	    0.6300	$mt1
+ $X=9.64 $Y=2.5975
Ri116	vdd!#21	vdd!#29	    0.9062	$mt1
+ $X=8.8905 $Y=2.88
Ri117	vdd!#29	vdd!#30	    0.1005	$mt1
+ $X=8.248 $Y=2.88
Ri118	vdd!#30	vdd!#32	    0.6183	$mt1
+ $X=8.155 $Y=2.5875
Ri120	vdd!#30	vdd!#34	    0.1055	$mt1
+ $X=8.0575 $Y=2.88
Ri121	vdd!#34	vdd!#35	    0.4613	$mt1	$X=7.86 $Y=2.88
Ri122	vdd!#35	vdd!#37	    0.6300	$mt1
+ $X=7.325 $Y=2.5975
Ri124	vdd!#35	vdd!#39	5.875e-02	$mt1
+ $X=7.0175 $Y=2.88
Ri125	vdd!#35	vdd!#41	    0.6300	$mt1
+ $X=6.485 $Y=2.5975
Ri127	vdd!#35	vdd!#43	    0.9187	$mt1
+ $X=5.723 $Y=2.88
Ri128	vdd!#43	vdd!#44	    0.1005	$mt1
+ $X=5.068 $Y=2.88
Ri129	vdd!#44	vdd!#46	    0.6183	$mt1
+ $X=4.975 $Y=2.5875
Ri131	vdd!#44	vdd!#48	    0.1055	$mt1
+ $X=4.8775 $Y=2.88
Ri132	vdd!#48	vdd!#49	    0.4538	$mt1	$X=3.92 $Y=2.88
Ri133	vdd!#49	vdd!#51	    0.6300	$mt1
+ $X=4.16 $Y=2.5975
Ri135	vdd!#49	vdd!#53	5.875e-02	$mt1
+ $X=3.8525 $Y=2.88
Ri136	vdd!#49	vdd!#55	    0.6300	$mt1
+ $X=3.32 $Y=2.5975
Ri138	vdd!#49	vdd!#57	    0.9112	$mt1
+ $X=2.5655 $Y=2.88
Ri139	vdd!#57	vdd!#58	    0.1005	$mt1
+ $X=1.918 $Y=2.88
Ri140	vdd!#58	vdd!#60	    0.6183	$mt1
+ $X=1.825 $Y=2.5875
Ri142	vdd!#58	vdd!#62	    0.1055	$mt1
+ $X=1.7275 $Y=2.88
Ri143	vdd!#62	vdd!#63	    0.5375	$mt1
+ $X=1.073 $Y=2.88
Ri144	vdd!#63	vdd!#64	    0.1005	$mt1
+ $X=0.423 $Y=2.88
Ri145	vdd!#64	vdd!#66	    0.6183	$mt1
+ $X=0.33 $Y=2.5875
Ri147	vdd!#64	vdd!	    0.1055	$mt1	$X=0.2325 $Y=2.88
Ri148	vdd!#1	vdd!#5	   15.0000	$mt1	$X=13.195 $Y=2.88
Ri149	vdd!#6	vdd!#7	    5.0000	$mt1	$X=14.43 $Y=1.895
Ri150	vdd!#9	vdd!#10	    5.0000	$mt1	$X=13.62 $Y=1.915
Ri151	vdd!#12	vdd!#13	    5.0000	$mt1
+ $X=12.78 $Y=1.915
Ri152	vdd!#1	vdd!#15	   15.0000	$mt1	$X=11.5 $Y=2.88
Ri153	vdd!#17	vdd!#18	    5.0000	$mt1
+ $X=11.295 $Y=1.895
Ri154	vdd!#22	vdd!#23	    5.0000	$mt1
+ $X=10.48 $Y=1.915
Ri155	vdd!#1	vdd!#25	   15.0000	$mt1	$X=10.055 $Y=2.88
Ri156	vdd!#26	vdd!#27	    5.0000	$mt1
+ $X=9.64 $Y=1.915
Ri157	vdd!#1	vdd!#29	   15.0000	$mt1	$X=8.36 $Y=2.88
Ri158	vdd!#31	vdd!#32	    5.0000	$mt1
+ $X=8.155 $Y=1.895
Ri159	vdd!#36	vdd!#37	    5.0000	$mt1
+ $X=7.325 $Y=1.915
Ri160	vdd!#1	vdd!#39	   15.0000	$mt1	$X=6.9 $Y=2.88
Ri161	vdd!#40	vdd!#41	    5.0000	$mt1
+ $X=6.485 $Y=1.915
Ri162	vdd!#1	vdd!#43	   15.0000	$mt1	$X=5.18 $Y=2.88
Ri163	vdd!#45	vdd!#46	    5.0000	$mt1
+ $X=4.975 $Y=1.895
Ri164	vdd!#50	vdd!#51	    5.0000	$mt1
+ $X=4.16 $Y=1.915
Ri165	vdd!#1	vdd!#53	   15.0000	$mt1	$X=3.735 $Y=2.88
Ri166	vdd!#54	vdd!#55	    5.0000	$mt1
+ $X=3.32 $Y=1.915
Ri167	vdd!#1	vdd!#57	   15.0000	$mt1	$X=2.03 $Y=2.88
Ri168	vdd!#59	vdd!#60	    5.0000	$mt1
+ $X=1.825 $Y=1.895
Ri169	vdd!#1	vdd!#63	   15.0000	$mt1	$X=0.535 $Y=2.88
Ri170	vdd!#65	vdd!#66	    5.0000	$mt1
+ $X=0.33 $Y=1.895
Ri171	gnd!#1	gnd!#2	   15.4680	$mt1	$X=14.8905 $Y=0
Ri172	gnd!#2	gnd!#3	    0.1030	$mt1	$X=14.335 $Y=0
Ri173	gnd!#3	gnd!#4	    0.1575	$mt1	$X=14.063 $Y=0
Ri174	gnd!#4	gnd!#5	    0.2555	$mt1	$X=13.638 $Y=0
Ri175	gnd!#5	gnd!#6	    0.4130	$mt1	$X=12.985 $Y=0
Ri176	gnd!#6	gnd!#7	    0.1625	$mt1	$X=12.398 $Y=0
Ri177	gnd!#7	gnd!#8	    0.4680	$mt1	$X=11.7555 $Y=0
Ri178	gnd!#8	gnd!#9	    0.1030	$mt1	$X=11.2 $Y=0
Ri179	gnd!#9	gnd!#10	    0.1600	$mt1	$X=10.9255 $Y=0
Ri180	gnd!#10	gnd!#11	    0.2555	$mt1	$X=10.498 $Y=0
Ri181	gnd!#11	gnd!#12	    0.4130	$mt1	$X=9.845 $Y=0
Ri182	gnd!#12	gnd!#13	    0.1625	$mt1	$X=9.258 $Y=0
Ri183	gnd!#13	gnd!#14	    0.4680	$mt1	$X=8.6155 $Y=0
Ri184	gnd!#14	gnd!#15	    0.1030	$mt1	$X=8.06 $Y=0
Ri185	gnd!#15	gnd!#16	    0.1675	$mt1	$X=7.778 $Y=0
Ri186	gnd!#16	gnd!#17	    0.2555	$mt1	$X=7.343 $Y=0
Ri187	gnd!#17	gnd!#18	    0.4130	$mt1	$X=6.69 $Y=0
Ri188	gnd!#18	gnd!#19	    0.1750	$mt1	$X=6.0905 $Y=0
Ri189	gnd!#19	gnd!#20	    0.4680	$mt1	$X=5.4355 $Y=0
Ri190	gnd!#20	gnd!#21	    0.1030	$mt1	$X=4.88 $Y=0
Ri191	gnd!#21	gnd!#22	    0.1600	$mt1	$X=4.6055 $Y=0
Ri192	gnd!#22	gnd!#23	    0.2555	$mt1	$X=4.178 $Y=0
Ri193	gnd!#23	gnd!#24	    0.4130	$mt1	$X=3.525 $Y=0
Ri194	gnd!#24	gnd!#25	    0.1675	$mt1	$X=2.933 $Y=0
Ri195	gnd!#25	gnd!#26	    0.4680	$mt1	$X=2.2855 $Y=0
Ri196	gnd!#26	gnd!#27	    0.1030	$mt1	$X=1.73 $Y=0
Ri197	gnd!#27	gnd!#28	    0.1725	$mt1	$X=1.443 $Y=0
Ri198	gnd!#28	gnd!#29	    0.4680	$mt1	$X=0.7905 $Y=0
Ri199	gnd!#29	gnd!	    0.1030	$mt1	$X=0.235 $Y=0
Ri200	gnd!#2	gnd!#31	    0.3083	$mt1	$X=14.43 $Y=0.18
Ri202	gnd!#5	gnd!#34	    0.3116	$mt1	$X=13.39 $Y=0.1825
Ri204	gnd!#8	gnd!#37	    0.3083	$mt1	$X=11.295 $Y=0.18
Ri206	gnd!#11	gnd!#40	    0.3116	$mt1
+ $X=10.25 $Y=0.1825
Ri208	gnd!#14	gnd!#43	    0.3083	$mt1
+ $X=8.155 $Y=0.18
Ri210	gnd!#17	gnd!#46	    0.3116	$mt1
+ $X=7.095 $Y=0.1825
Ri212	gnd!#20	gnd!#49	    0.3083	$mt1
+ $X=4.975 $Y=0.18
Ri214	gnd!#23	gnd!#52	    0.3116	$mt1
+ $X=3.93 $Y=0.1825
Ri216	gnd!#26	gnd!#55	    0.3083	$mt1
+ $X=1.825 $Y=0.18
Ri218	gnd!#29	gnd!#58	    0.3083	$mt1	$X=0.33 $Y=0.18
Ri220	gnd!#1	gnd!#4	   15.0000	$mt1	$X=13.905 $Y=0
Ri221	gnd!#1	gnd!#7	   15.0000	$mt1	$X=12.235 $Y=0
Ri222	gnd!#1	gnd!#10	   15.0000	$mt1	$X=10.765 $Y=0
Ri223	gnd!#1	gnd!#13	   15.0000	$mt1	$X=9.095 $Y=0
Ri224	gnd!#1	gnd!#16	   15.0000	$mt1	$X=7.61 $Y=0
Ri225	gnd!#1	gnd!#19	   15.0000	$mt1	$X=5.915 $Y=0
Ri226	gnd!#1	gnd!#22	   15.0000	$mt1	$X=4.445 $Y=0
Ri227	gnd!#1	gnd!#25	   15.0000	$mt1	$X=2.765 $Y=0
Ri228	gnd!#1	gnd!#28	   15.0000	$mt1	$X=1.27 $Y=0
Ri229	gnd!#30	gnd!#31	   15.0000	$mt1
+ $X=14.43 $Y=0.52
Ri230	gnd!#33	gnd!#34	   15.0000	$mt1
+ $X=13.39 $Y=0.525
Ri231	gnd!#36	gnd!#37	   15.0000	$mt1
+ $X=11.295 $Y=0.52
Ri232	gnd!#39	gnd!#40	   15.0000	$mt1
+ $X=10.25 $Y=0.525
Ri233	gnd!#42	gnd!#43	   15.0000	$mt1
+ $X=8.155 $Y=0.52
Ri234	gnd!#45	gnd!#46	   15.0000	$mt1
+ $X=7.095 $Y=0.525
Ri235	gnd!#48	gnd!#49	   15.0000	$mt1
+ $X=4.975 $Y=0.52
Ri236	gnd!#51	gnd!#52	   15.0000	$mt1
+ $X=3.93 $Y=0.525
Ri237	gnd!#54	gnd!#55	   15.0000	$mt1
+ $X=1.825 $Y=0.52
Ri238	gnd!#57	gnd!#58	   15.0000	$mt1	$X=0.33 $Y=0.52
Rj1	A#3	A#4	   25.7927	$poly	$X=0.54 $Y=1.3055
Rj2	A#4	A#5	   27.2927	$poly	$X=0.54 $Y=0.8675
Rj3	A#1	A#4	   10.0000	$poly	$X=0.49 $Y=1.095
Rj4	B#3	B#4	   25.7927	$poly	$X=2.035 $Y=1.3055
Rj5	B#4	B#5	   27.2927	$poly	$X=2.035 $Y=0.8675
Rj6	B#1	B#4	   10.0000	$poly	$X=1.985 $Y=1.095
Rj7	avC11#9	avC11#10	   15.1026	$poly
+ $X=3.53 $Y=1.3755
Rj8	avC11#10	avC11#11	   38.1026	$poly	$X=3.5 $Y=0.94
Rj9	avC9#12	avC9#11	   17.2927	$poly
+ $X=3.95 $Y=1.368
Rj10	avC9#11	avC9#13	   51.4673	$poly
+ $X=3.95 $Y=1.0525
Rj11	avC10#12	avC10#13	   25.7927	$poly
+ $X=5.185 $Y=1.3055
Rj12	avC10#13	avC10#14	   27.2927	$poly
+ $X=5.185 $Y=0.8675
Rj13	avC10#9	avC10#13	   10.0000	$poly
+ $X=5.135 $Y=1.095
Rj14	avC11#14	avC11#15	   15.1026	$poly
+ $X=6.695 $Y=1.3755
Rj15	avC11#15	avC11#16	   38.1026	$poly
+ $X=6.665 $Y=0.94
Rj16	B#9	B#8	   17.2927	$poly	$X=7.115 $Y=1.368
Rj17	B#8	B#10	   51.4673	$poly	$X=7.115 $Y=1.0525
Rj18	avC12#12	avC12#13	   25.7927	$poly
+ $X=8.365 $Y=1.3055
Rj19	avC12#13	avC12#14	   27.2927	$poly
+ $X=8.365 $Y=0.8675
Rj20	avC12#9	avC12#13	   10.0000	$poly
+ $X=8.315 $Y=1.095
Rj21	A#6	A#7	   15.1026	$poly	$X=9.85 $Y=1.3755
Rj22	A#7	A#8	   38.1026	$poly	$X=9.82 $Y=0.94
Rj23	avC9#17	avC9#16	   17.2927	$poly
+ $X=10.27 $Y=1.368
Rj24	avC9#16	avC9#18	   51.4673	$poly
+ $X=10.27 $Y=1.0525
Rj25	avC13#12	avC13#13	   25.7927	$poly
+ $X=11.505 $Y=1.3055
Rj26	avC13#13	avC13#14	   27.2927	$poly
+ $X=11.505 $Y=0.8675
Rj27	avC13#9	avC13#13	   10.0000	$poly
+ $X=11.455 $Y=1.095
Rj28	A#11	A#12	   15.1026	$poly	$X=12.99 $Y=1.3755
Rj29	A#12	A#13	   38.1026	$poly	$X=12.96 $Y=0.94
Rj30	B#14	B#13	   17.2927	$poly	$X=13.41 $Y=1.368
Rj31	B#13	B#15	   51.4673	$poly	$X=13.41 $Y=1.0525
Rj32	avC14#12	avC14#13	   25.7927	$poly
+ $X=14.64 $Y=1.3055
Rj33	avC14#13	avC14#14	   27.2927	$poly
+ $X=14.64 $Y=0.8675
Rj34	avC14#9	avC14#13	   10.0000	$poly
+ $X=14.59 $Y=1.095
*
*       CAPACITOR CARDS
*
*
C1	B#2	gnd!#23	8.25597e-18	$X=3.715 $Y=0.1065
C2	avC9#14	gnd!#1	4.15306e-17	$X=9.881 $Y=0.927
C3	avC9#5	B#1	7.4538e-18	$X=2.109 $Y=1.065
C4	gnd!#5	A#13	4.36569e-18	$X=13.139 $Y=0.3245
C5	avC11#16	gnd!#1	2.25111e-17	$X=6.6645 $Y=0.522
C6	A#9	vdd!#1	2.41332e-17	$X=9.3135 $Y=1.46
C7	A#7	avC9#16	8.70796e-18	$X=10.027 $Y=1.181
C8	A#2	vdd!	1.00868e-17	$X=0.1585 $Y=2.864
C9	avC14#5	B#13	1.89656e-17	$X=13.279 $Y=1.1125
C10	vdd!#49	avC11#9	8.99219e-18	$X=3.4595 $Y=2.242
C11	avC12#4	B#7	1.65117e-18	$X=7.327 $Y=1.2105
C12	avC13#11	gnd!#1	7.26661e-18	$X=10.874 $Y=1.318
C13	avC13#5	gnd!#1	4.4882e-18	$X=10.059 $Y=1.082
C14	B#11	avC14#4	1.47991e-17	$X=13.2385 $Y=1.3535
C15	avC11#12	vdd!#1	1.77415e-17	$X=2.9735 $Y=1.332
C16	gnd!#20	avC10#10	1.11846e-18	$X=5.128 $Y=0.5025
C17	B#2	gnd!#26	6.94078e-18	$X=2.0755 $Y=0.0535
C18	B#10	gnd!#1	1.82873e-17	$X=6.8845 $Y=0.5645
C19	avC9#16	avC13#9	1.37271e-18	$X=11.086 $Y=1.119
C20	vdd!#4	B#14	3.06946e-18	$X=13.1985 $Y=2.241
C21	avC13#11	vdd!#1	1.75099e-17	$X=10.8465 $Y=1.33
C22	B	A#1	3.01303e-18	$X=0.755 $Y=1.0985
C23	A#15	gnd!#1	3.1843e-18	$X=11.755 $Y=2.1605
C24	avC14#5	B#15	5.33132e-18	$X=13.191 $Y=0.873
C25	avC9#14	avC13#14	2.37299e-18	$X=11.3735 $Y=0.523
C26	B#11	gnd!#9	6.76039e-18	$X=11.1485 $Y=0.0225
C27	vdd!#49	avC9#12	3.18314e-18	$X=3.739 $Y=2.2405
C28	avC11#10	avC10#4	1.54193e-17	$X=3.572 $Y=1.3065
C29	avC12#14	gnd!#1	2.69562e-17	$X=8.364 $Y=0.488
C30	avC10#5	gnd!#1	4.28737e-18	$X=3.7395 $Y=1.082
C31	avC11#18	Y0#4	1.96767e-18	$X=5.495 $Y=1.859
C32	A	gnd!#1	2.0842e-17	$X=0.0745 $Y=1.356
C33	A	vdd!#1	2.94212e-17	$X=0.136 $Y=1.3685
C34	avC11	B	1.6472e-17	$X=1.536 $Y=1.49
C35	Y0	avC10#9	5.69773e-18	$X=5.306 $Y=1.116
C36	B#2	gnd!#24	1.15862e-17	$X=3.115 $Y=0.051
C37	B	avC9#5	2.18767e-17	$X=2.044 $Y=1.0415
C38	Y0	avC11#15	2.36151e-18	$X=5.767 $Y=1.151
C39	avC11#13	B	3.1142e-18	$X=2.0645 $Y=1.3135
C40	avC9#9	avC11#10	5.54542e-18	$X=3.593 $Y=1.166
C41	gnd!#18	avC11#16	6.57274e-18	$X=6.5365 $Y=0.2785
C42	A#15	vdd!#1	6.62418e-17	$X=11.6785 $Y=2.173
C43	B#11	avC14#11	6.2283e-18	$X=13.916 $Y=1.1635
C44	avC10#4	avC9#11	2.51725e-17	$X=3.933 $Y=1.304
C45	B#11	avC13#10	7.08677e-18	$X=11.5135 $Y=1.059
C46	A#8	gnd!#1	2.2582e-17	$X=9.819 $Y=0.522
C47	avC13#5	vdd!#1	1.13818e-18	$X=10.0535 $Y=1.0855
C48	avC13#11	A#14	2.50969e-18	$X=11.8395 $Y=1.26
C49	A#10	avC12#5	9.25136e-19	$X=6.963 $Y=1.121
C50	Y1	avC12#9	5.69983e-18	$X=8.486 $Y=1.116
C51	B	gnd!#1	1.22888e-17	$X=1.672 $Y=1.132
C52	B#7	avC12#9	1.03837e-18	$X=8.0265 $Y=1.0805
C53	gnd!#5	B#15	1.11286e-17	$X=13.273 $Y=0.334
C54	B	vdd!#1	1.97047e-17	$X=1.7285 $Y=1.1485
C55	Y1	A#7	2.4759e-18	$X=8.9395 $Y=1.151
C56	avC9#9	Y0	7.94637e-18	$X=5.3725 $Y=1.126
C57	avC10#11	Y0	6.36193e-19	$X=5.2555 $Y=1.1655
C58	B#11	gnd!#1	1.1509e-16	$X=13.018 $Y=0.527
C59	A#15	vdd!#4	1.22088e-17	$X=12.459 $Y=2.585
C60	avC14#4	gnd!#5	1.00916e-18	$X=13.3655 $Y=0.4935
C61	avC10#5	vdd!#1	1.13818e-18	$X=3.7475 $Y=1.0855
C62	B#11	avC13#14	2.84626e-18	$X=11.6185 $Y=0.4905
C63	avC10#11	avC9#11	1.08064e-18	$X=4.185 $Y=1.223
C64	avC9#18	gnd!#1	1.88321e-17	$X=10.039 $Y=0.5645
C65	avC11#5	A#1	4.60447e-18	$X=0.663 $Y=1.1215
C66	avC9#9	avC10#9	1.02621e-18	$X=5.166 $Y=1.082
C67	Y2	avC13#9	6.60933e-18	$X=11.623 $Y=1.109
C68	A#12	B#13	8.73198e-18	$X=13.169 $Y=1.181
C69	B#6	gnd!#15	6.62094e-18	$X=7.907 $Y=0.0125
C70	Y0	gnd!#1	2.56209e-18	$X=5.3945 $Y=1.1345
C71	Y2	A#12	1.89215e-18	$X=12.0935 $Y=1.1435
C72	Y0	vdd!#1	3.6881e-18	$X=5.398 $Y=1.137
C73	A	avC11#5	3.12317e-17	$X=0.64 $Y=1.1775
C74	avC12#5	avC11#16	1.08467e-18	$X=6.8005 $Y=0.839
C75	vdd!#48	avC9#12	5.86607e-18	$X=4.1915 $Y=2.3385
C76	avC12#11	Y1	5.23832e-19	$X=8.4315 $Y=1.165
C77	avC14#11	gnd!#1	1.07583e-17	$X=14.1315 $Y=1.317
C78	avC12#11	B#7	2.91213e-17	$X=7.5595 $Y=1.143
C79	avC9#4	avC11#12	2.65362e-18	$X=2.4135 $Y=1.244
C80	avC9#14	Y1	8.54202e-18	$X=8.642 $Y=1.1235
C81	avC13#14	gnd!#1	2.62468e-17	$X=11.504 $Y=0.488
C82	avC9#9	avC11#15	6.21945e-18	$X=6.4745 $Y=1.166
C83	avC11#9	avC9#12	1.38919e-17	$X=3.7385 $Y=1.973
C84	avC9#5	avC11#12	1.17744e-17	$X=2.858 $Y=1.243
C85	B#6	avC12#10	2.8014e-18	$X=8.1315 $Y=1.091
C86	Y3	avC14#9	6.32431e-18	$X=14.763 $Y=1.1215
C87	Y1	gnd!#1	2.53857e-18	$X=8.574 $Y=1.1345
C88	avC11#13	vdd!#49	5.19779e-18	$X=3.268 $Y=2.54
C89	Y1	vdd!#1	3.63549e-18	$X=8.5725 $Y=1.137
C90	vdd!#3	B#14	5.97975e-18	$X=13.651 $Y=2.339
C91	B#2	avC10#5	3.58989e-18	$X=3.628 $Y=1.0485
C92	B#12	avC14#9	1.22737e-18	$X=14.3165 $Y=1.081
C93	A#2	vdd!#48	1.57537e-17	$X=4.1545 $Y=2.799
C94	gnd!#2	avC14#14	1.30695e-17	$X=14.661 $Y=0.2745
C95	avC14#11	vdd!#1	2.46792e-17	$X=14.0795 $Y=1.3285
C96	B#13	avC14#9	1.39523e-18	$X=14.2185 $Y=1.119
C97	avC9#9	B#8	4.81661e-18	$X=6.916 $Y=1.1485
C98	avC13#11	Y2	6.09642e-19	$X=11.566 $Y=1.157
C99	A#13	gnd!#1	2.27104e-17	$X=12.959 $Y=0.522
C100	avC11#5	B	9.78509e-18	$X=0.879 $Y=1.1415
C101	gnd!#27	B	2.80827e-18	$X=1.5975 $Y=0.157
C102	avC14#4	vdd!#4	7.15002e-18	$X=13.0165 $Y=2.25
C103	gnd!#29	A#5	1.30695e-17	$X=0.561 $Y=0.2745
C104	Y2	gnd!#1	3.92495e-18	$X=11.714 $Y=1.123
C105	Y2	vdd!#1	2.77793e-18	$X=11.707 $Y=1.126
C106	B	avC9#4	2.10096e-17	$X=2.192 $Y=1.2105
C107	gnd!#15	avC12#11	2.3549e-18	$X=7.8885 $Y=0.209
C108	avC12#5	B#10	4.63501e-18	$X=6.896 $Y=0.8725
C109	A#10	Y0#4	3.03779e-19	$X=5.8075 $Y=1.937
C110	avC11#14	B#9	1.38923e-17	$X=6.9035 $Y=1.973
C111	B#11	avC14#14	3.51634e-18	$X=14.517 $Y=0.4905
C112	avC11#15	avC12#4	1.59566e-17	$X=6.7105 $Y=1.3055
C113	B#15	gnd!#1	1.86385e-17	$X=13.179 $Y=0.5645
C114	avC9#15	vdd!#1	6.94778e-18	$X=10.6425 $Y=1.1785
C115	avC10#4	vdd!#49	3.89916e-18	$X=3.555 $Y=2.245
C116	avC14#11	Y3	6.14016e-19	$X=14.7285 $Y=1.172
C117	B#11	gnd!#5	8.47698e-18	$X=13.349 $Y=0.1015
C118	Y3	gnd!#1	7.23663e-18	$X=14.849 $Y=1.143
C119	Y3	vdd!#1	8.99662e-18	$X=14.8375 $Y=1.1455
C120	avC13#10	gnd!#1	2.05912e-18	$X=11.307 $Y=1.132
C121	A#10	vdd!#34	4.3837e-18	$X=7.9685 $Y=2.867
C122	avC12#4	B#8	2.62721e-17	$X=7.0705 $Y=1.3015
C123	avC9#10	vdd!#1	7.37181e-18	$X=4.331 $Y=1.1825
C124	avC14#14	gnd!#1	2.72561e-17	$X=14.639 $Y=0.488
C125	A#14	avC14#4	2.2178e-18	$X=12.7675 $Y=1.3565
C126	A#10	avC12	3.11581e-18	$X=7.1535 $Y=1.959
C127	A#6	avC9#17	1.38919e-17	$X=10.0585 $Y=1.973
C128	avC11	A#2	8.64421e-17	$X=1.367 $Y=1.911
C129	avC11#12	avC10#4	2.59643e-18	$X=3.171 $Y=1.3945
C130	A#1	gnd!#1	1.6143e-17	$X=0.5395 $Y=1.091
C131	avC10#10	gnd!#1	2.65343e-18	$X=4.995 $Y=1.132
C132	gnd!#26	B#5	1.30695e-17	$X=2.056 $Y=0.2745
C133	avC12#11	B#8	1.04011e-18	$X=7.342 $Y=1.2215
C134	avC10#10	Y0	3.48693e-17	$X=5.283 $Y=1.1335
C135	B#11	gnd!#8	7.56481e-18	$X=11.694 $Y=0.0495
C136	B#11	Y2#1	1.93011e-18	$X=11.858 $Y=0.52
C137	avC11#13	avC10#5	9.58024e-19	$X=3.69 $Y=1.1375
C138	avC11#17	avC10#12	9.64975e-19	$X=5.7275 $Y=1.581
C139	A#10	avC12#10	3.187e-18	$X=8.2015 $Y=1.205
C140	A#1	vdd!#1	1.13535e-17	$X=0.5555 $Y=1.095
C141	Y0	avC11#17	2.06431e-18	$X=5.6475 $Y=1.201
C142	B#11	gnd!#6	1.17994e-17	$X=12.72 $Y=0.0465
C143	B#1	gnd!#1	1.19813e-17	$X=2.0345 $Y=1.091
C144	avC13#10	vdd!#1	2.82718e-18	$X=11.29 $Y=1.1395
C145	gnd!#29	A	2.36944e-18	$X=0.4375 $Y=0.399
C146	B#2	avC11	1.11151e-17	$X=1.539 $Y=1.5485
C147	B#1	vdd!#1	1.2735e-17	$X=2.047 $Y=1.095
C148	avC9#4	B#1	3.39419e-18	$X=2.1815 $Y=1.18
C149	A#9	avC12#9	1.61264e-18	$X=8.6865 $Y=1.213
C150	B#11	A#14	1.3468e-17	$X=12.5545 $Y=1.1235
C151	gnd!#2	avC14#10	2.36944e-18	$X=14.583 $Y=0.5045
C152	A#11	B#14	1.38999e-17	$X=13.1985 $Y=1.973
C153	vdd!#35	avC11#14	8.99219e-18	$X=6.7435 $Y=2.1875
C154	avC14#5	B#12	7.88694e-18	$X=13.414 $Y=1.0755
C155	avC11#13	A#2	1.9391e-16	$X=2.4215 $Y=1.942
C156	avC11#10	gnd!#1	8.28987e-18	$X=3.469 $Y=1.1895
C157	avC10#10	vdd!#1	2.55719e-18	$X=5.0055 $Y=1.139
C158	avC9#14	B#7	4.59265e-18	$X=7.7415 $Y=1.0495
C159	A#10	Y1#4	1.79665e-18	$X=8.55 $Y=1.937
C160	B#6	gnd!#12	1.11179e-17	$X=9.4435 $Y=0.0265
C161	avC11#10	vdd!#1	1.13429e-17	$X=3.4845 $Y=1.1955
C162	A#2	avC10#4	1.02368e-17	$X=3.3685 $Y=1.7125
C163	B#2	avC9#5	8.51919e-17	$X=2.3555 $Y=0.8355
C164	gnd!#23	avC11#11	4.36569e-18	$X=3.679 $Y=0.3245
C165	avC9#11	gnd!#1	8.52607e-18	$X=3.9745 $Y=1.1725
C166	avC9#14	avC12#9	8.84108e-19	$X=8.4705 $Y=1.0795
C167	A#7	avC13#4	1.6084e-17	$X=9.8915 $Y=1.3075
C168	avC9#4	avC11#10	2.21081e-18	$X=2.491 $Y=1.2125
C169	avC12#10	Y1	3.48625e-17	$X=8.4625 $Y=1.1335
C170	B#2	avC11#13	3.23781e-18	$X=2.6115 $Y=1.2445
C171	avC9#11	vdd!#1	9.70282e-18	$X=3.9895 $Y=1.1795
C172	vdd!#35	B#9	9.09468e-18	$X=7.0645 $Y=2.1855
C173	avC9#14	A#7	6.21945e-18	$X=9.799 $Y=1.1595
C174	avC10#9	gnd!#1	1.31262e-17	$X=5.1845 $Y=1.091
C175	A#10	avC13	2.75996e-18	$X=9.8225 $Y=1.959
C176	Y1	A#9	2.03042e-18	$X=8.7755 $Y=1.2205
C177	avC9#9	avC10#5	1.59161e-17	$X=3.7985 $Y=1.0735
C178	avC13#4	avC9#16	2.76081e-17	$X=10.2505 $Y=1.3055
C179	avC9#5	avC11#13	2.74575e-17	$X=2.6775 $Y=1.2
C180	B#11	avC14#5	6.95395e-18	$X=13.188 $Y=1.047
C181	avC10#9	vdd!#1	1.28073e-17	$X=5.1895 $Y=1.095
C182	avC9#14	avC12#10	1.27701e-17	$X=8.3865 $Y=1.1065
C183	avC11#18	A#2	8.90615e-18	$X=4.492 $Y=1.9045
C184	avC11#15	gnd!#1	8.53302e-18	$X=6.634 $Y=1.1895
C185	B#2	avC9#9	7.99476e-17	$X=3.283 $Y=0.7255
C186	avC10#4	avC9#10	1.27982e-18	$X=4.2395 $Y=1.2535
C187	avC12#11	A#9	2.20886e-18	$X=8.7555 $Y=1.405
C188	avC13#11	avC9#16	1.22744e-18	$X=10.4955 $Y=1.2225
C189	avC11#15	vdd!#1	1.1371e-17	$X=6.637 $Y=1.1955
C190	gnd!#11	avC13#5	2.97496e-18	$X=10.1265 $Y=0.7165
C191	B#6	avC13#5	3.58989e-18	$X=9.967 $Y=1.062
C192	avC11#11	avC9#13	4.86741e-17	$X=3.6025 $Y=0.5415
C193	avC14#4	B#12	1.68501e-18	$X=13.6535 $Y=1.213
C194	avC11#13	avC10#4	5.23183e-17	$X=3.6355 $Y=1.659
C195	A#10	vdd!#21	3.32578e-17	$X=9.5 $Y=2.7065
C196	B#8	gnd!#1	8.46947e-18	$X=7.1395 $Y=1.1725
C197	avC13#5	A#7	2.13266e-17	$X=9.9615 $Y=1.1205
C198	avC13#4	vdd!#22	1.09938e-18	$X=10.31 $Y=1.765
C199	gnd!#23	avC9#13	1.11286e-17	$X=3.813 $Y=0.334
C200	avC11#13	B#3	4.02139e-18	$X=2.187 $Y=1.9105
C201	B#8	vdd!#1	9.62605e-18	$X=7.141 $Y=1.1795
C202	gnd!#1	A#14	3.08147e-18	$X=12.4775 $Y=1.222
C203	avC9#9	avC11#13	8.60318e-18	$X=3.8025 $Y=1.451
C204	avC14#4	vdd!#3	1.45057e-18	$X=13.7415 $Y=2.3995
C205	avC12#9	gnd!#1	1.31407e-17	$X=8.364 $Y=1.091
C206	avC13#10	Y2	3.59911e-17	$X=11.5995 $Y=1.1255
C207	avC10#4	avC11#9	1.57163e-17	$X=3.62 $Y=1.8665
C208	avC10#11	avC11#13	2.48017e-17	$X=4.2305 $Y=1.4315
C209	avC9#9	avC10#4	4.07789e-17	$X=4.0425 $Y=1.47
C210	avC10#5	avC11#10	2.08545e-17	$X=3.6415 $Y=1.1205
C211	avC12#9	vdd!#1	1.26991e-17	$X=8.3625 $Y=1.095
C212	Y2	A#14	1.00891e-17	$X=11.9015 $Y=1.147
C213	A#7	gnd!#1	8.52161e-18	$X=9.7885 $Y=1.1895
C214	avC13#4	vdd!#21	4.40814e-18	$X=9.8735 $Y=2.2425
C215	avC10#4	avC9#12	1.58678e-17	$X=3.916 $Y=1.8635
C216	gnd!#23	avC10#5	2.97496e-18	$X=3.8065 $Y=0.7165
C217	avC13#5	avC9#16	1.90998e-17	$X=10.138 $Y=1.112
C218	avC11#16	B#10	4.87345e-17	$X=6.7675 $Y=0.5415
C219	A#7	vdd!#1	1.16016e-17	$X=9.78 $Y=1.1955
C220	avC10#11	avC9#12	1.20269e-18	$X=4.1635 $Y=1.7495
C221	gnd!#12	A#8	6.57274e-18	$X=9.693 $Y=0.2755
C222	A#12	avC14#4	1.58221e-17	$X=13.0335 $Y=1.3055
C223	gnd!#20	avC10#14	1.30695e-17	$X=5.206 $Y=0.2745
C224	avC9#16	gnd!#1	9.36912e-18	$X=10.294 $Y=1.1725
C225	A#14	vdd!#1	3.0067e-17	$X=12.4505 $Y=1.2305
C226	avC9#9	avC10#11	5.28777e-17	$X=4.628 $Y=1.251
C227	avC10#11	avC9#10	2.31094e-17	$X=4.377 $Y=1.2075
C228	gnd!#14	avC12#10	1.11846e-18	$X=8.3085 $Y=0.508
C229	gnd!#9	avC13#10	9.70397e-19	$X=11.124 $Y=0.284
C230	avC10#5	avC9#11	1.90809e-17	$X=3.8185 $Y=1.1125
C231	A#3	vdd!#1	2.59957e-17	$X=0.5695 $Y=1.9335
C232	avC9#16	vdd!#1	9.74866e-18	$X=10.282 $Y=1.1795
C233	avC14#5	gnd!#1	4.72028e-18	$X=13.199 $Y=1.082
C234	avC14#4	B#13	2.69203e-17	$X=13.396 $Y=1.302
C235	avC9#9	avC10#10	1.24574e-17	$X=4.981 $Y=1.1115
C236	avC11#18	avC10#12	3.93672e-18	$X=5.2915 $Y=1.9025
C237	avC13#9	gnd!#1	1.2755e-17	$X=11.504 $Y=1.091
C238	A#9	avC13#4	3.29359e-18	$X=9.5835 $Y=1.502
C239	avC9#9	avC11#18	3.45815e-17	$X=5.4565 $Y=1.532
C240	avC11#17	vdd!#1	1.7598e-17	$X=6.1285 $Y=1.331
C241	A#10	avC13#5	8.96481e-19	$X=10.003 $Y=1.1225
C242	B#3	vdd!#1	3.0562e-17	$X=2.058 $Y=1.9335
C243	avC13#9	vdd!#1	1.28211e-17	$X=11.495 $Y=1.095
C244	avC13#5	A#8	1.08467e-18	$X=9.9555 $Y=0.839
C245	avC9#9	avC12#4	4.30945e-17	$X=6.4935 $Y=1.4675
C246	avC10#11	avC11#18	2.19706e-17	$X=4.947 $Y=1.471
C247	A#12	gnd!#1	1.03789e-17	$X=12.9285 $Y=1.1895
C248	gnd!#21	avC10#11	1.79693e-18	$X=4.717 $Y=0.2065
C249	avC12#5	gnd!#1	4.46904e-18	$X=6.9045 $Y=1.0805
C250	A#10	avC10#12	2.38353e-18	$X=5.4145 $Y=1.9485
C251	avC12#4	avC11#14	1.56862e-17	$X=6.757 $Y=1.8665
C252	avC14#11	B#12	4.18287e-17	$X=13.897 $Y=1.147
C253	avC14#11	B#13	1.19891e-18	$X=13.6795 $Y=1.223
C254	avC14#10	Y3	3.12792e-17	$X=14.7415 $Y=1.14
C255	avC11#9	vdd!#1	1.28346e-17	$X=3.546 $Y=1.9785
C256	A#8	avC9#18	4.86642e-17	$X=9.9225 $Y=0.5415
C257	gnd!#17	avC11#16	4.36569e-18	$X=6.844 $Y=0.3245
C258	A#15	Y2#4	1.3812e-18	$X=11.715 $Y=1.9845
C259	A#12	vdd!#1	1.30792e-17	$X=12.9075 $Y=1.1955
C260	avC9#9	B#6	2.18664e-16	$X=5.9055 $Y=0.7665
C261	B#6	gnd!#11	8.39286e-18	$X=10.0735 $Y=0.08
C262	avC12#4	B#9	1.65727e-17	$X=7.054 $Y=1.863
C263	A#10	avC11#14	2.1046e-18	$X=6.8155 $Y=1.99
C264	B#13	gnd!#1	9.25537e-18	$X=13.434 $Y=1.1725
C265	avC11#10	avC9#13	9.2719e-18	$X=3.605 $Y=0.8495
C266	avC14#11	vdd!#3	7.12193e-18	$X=14.0605 $Y=2.198
C267	avC14#5	vdd!#1	1.13818e-18	$X=13.1865 $Y=1.0855
C268	avC9#14	A#9	1.27655e-17	$X=9.394 $Y=1.3855
C269	A#9	avC12#12	2.44778e-18	$X=8.831 $Y=1.6975
C270	avC12#11	B#9	1.13461e-18	$X=7.322 $Y=1.7505
C271	avC9#9	avC12#11	6.79781e-18	$X=7.2355 $Y=1.2495
C272	avC9#12	vdd!#1	1.3035e-17	$X=3.964 $Y=1.9745
C273	B#6	avC10#11	2.07688e-18	$X=4.931 $Y=1.222
C274	avC12#4	avC11#18	3.0912e-18	$X=6.469 $Y=1.6745
C275	B#13	vdd!#1	9.60608e-18	$X=13.4085 $Y=1.1795
C276	avC14#9	gnd!#1	1.44701e-17	$X=14.639 $Y=1.091
C277	gnd!#3	avC14#11	5.14396e-18	$X=14.1875 $Y=0.2095
C278	avC12#5	vdd!#1	1.12345e-18	$X=6.9055 $Y=1.084
C279	avC13#5	avC9#18	4.63501e-18	$X=10.051 $Y=0.873
C280	avC9#9	A#10	8.72677e-18	$X=6.3365 $Y=1.443
C281	B#6	gnd!#14	7.12535e-18	$X=8.3625 $Y=0.0285
C282	avC10#12	vdd!#1	2.26527e-17	$X=5.1945 $Y=1.9335
C283	B#12	gnd!#1	4.7351e-18	$X=13.784 $Y=1.0655
C284	avC14#9	vdd!#1	1.28206e-17	$X=14.6225 $Y=1.095
C285	A#10	avC12#12	6.64497e-18	$X=8.375 $Y=1.9485
C286	avC11#18	avC10#10	4.61667e-18	$X=5.141 $Y=1.266
C287	vdd!#21	A#6	8.99219e-18	$X=9.7795 $Y=2.2425
C288	avC11#14	vdd!#1	1.28349e-17	$X=6.6975 $Y=1.9785
C289	A#2	vdd!#1	1.42538e-16	$X=1.4885 $Y=2.227
C290	A#13	B#15	4.89584e-17	$X=13.0625 $Y=0.5415
C291	A#10	vdd!#20	8.59565e-18	$X=10.6445 $Y=2.815
C292	avC13#4	A#6	1.58134e-17	$X=9.939 $Y=1.866
C293	B#7	gnd!#1	3.95576e-18	$X=7.482 $Y=1.0645
C294	gnd!#17	B#10	1.11286e-17	$X=6.978 $Y=0.334
C295	avC9#14	avC13#5	1.56628e-17	$X=10.0475 $Y=1.0715
C296	avC11#18	A#10	1.18316e-16	$X=6.3535 $Y=1.8875
C297	B#6	gnd!#17	8.03495e-18	$X=7.119 $Y=0.08
C298	avC11#5	gnd!#1	1.9169e-18	$X=0.7495 $Y=1.1435
C299	avC11#15	B#10	9.2719e-18	$X=6.77 $Y=0.8495
C300	B#9	vdd!#1	1.30474e-17	$X=7.116 $Y=1.9745
C301	avC11	vdd!#1	1.24241e-17	$X=1.46 $Y=1.859
C302	avC13#4	avC9#17	1.6548e-17	$X=10.2345 $Y=1.8625
C303	B#2	gnd!#1	1.0531e-16	$X=1.995 $Y=0.5605
C304	A#10	avC12#4	2.09152e-17	$X=7.146 $Y=1.6925
C305	B#6	avC12#11	2.73055e-18	$X=7.7005 $Y=1.2205
C306	B#11	avC14	1.0834e-18	$X=13.155 $Y=1.576
C307	vdd!#21	avC9#17	3.18314e-18	$X=10.0585 $Y=2.241
C308	B#12	vdd!#1	8.20774e-18	$X=13.7605 $Y=1.072
C309	B#6	Y0#1	1.03337e-18	$X=5.5275 $Y=0.5195
C310	avC9#9	avC11#17	1.25157e-17	$X=6.0305 $Y=1.297
C311	avC13#11	avC9#17	9.50893e-19	$X=10.473 $Y=1.751
C312	avC12#12	vdd!#1	2.24039e-17	$X=8.3605 $Y=1.9335
C313	avC14#10	gnd!#1	3.12789e-18	$X=14.4505 $Y=1.132
C314	B#6	gnd!#21	6.36618e-18	$X=4.8105 $Y=0.0125
C315	gnd!#24	avC11#11	6.57274e-18	$X=3.372 $Y=0.277
C316	avC9#5	gnd!#1	1.15421e-17	$X=2.4855 $Y=0.9345
C317	avC11#5	vdd!#1	3.21948e-18	$X=0.76 $Y=1.146
C318	B#6	gnd!#20	7.12535e-18	$X=5.3585 $Y=0.0285
C319	avC9#5	B#5	5.47181e-18	$X=2.119 $Y=0.5715
C320	B#7	vdd!#1	7.27664e-18	$X=7.482 $Y=1.071
C321	B#2	avC11#11	2.05714e-18	$X=3.376 $Y=0.525
C322	gnd!#14	avC12#14	1.30695e-17	$X=8.386 $Y=0.2745
C323	A#6	vdd!#1	1.28215e-17	$X=9.8395 $Y=1.9785
C324	B#6	avC10#10	2.87811e-18	$X=5.1645 $Y=1.0905
C325	avC12#11	A#10	1.42641e-17	$X=7.8285 $Y=1.4265
C326	A#15	avC13#12	8.62196e-18	$X=11.5525 $Y=1.974
C327	avC12#10	gnd!#1	2.49939e-18	$X=8.178 $Y=1.132
C328	avC10#11	avC11#17	1.9592e-18	$X=5.693 $Y=1.324
C329	avC9#17	vdd!#1	1.30306e-17	$X=10.2575 $Y=1.9745
C330	avC10#5	avC11#11	1.08467e-18	$X=3.6355 $Y=0.839
C331	avC9#14	B#6	2.20286e-16	$X=9.065 $Y=0.7895
C332	avC11#13	vdd!#1	3.01848e-17	$X=3.2205 $Y=1.822
C333	A#7	avC9#18	9.2719e-18	$X=9.925 $Y=0.8495
C334	avC11#18	vdd!#35	4.33571e-18	$X=6.381 $Y=2.401
C335	avC9#9	avC12#5	1.13026e-17	$X=6.7965 $Y=1.072
C336	avC14#4	A#11	1.60268e-17	$X=13.0815 $Y=1.8675
C337	A#2	avC10	2.27619e-18	$X=3.2635 $Y=1.968
C338	avC14#10	vdd!#1	4.98208e-18	$X=14.4205 $Y=1.139
C339	avC12#5	B#7	5.396e-18	$X=7.1185 $Y=1.0745
C340	avC9#14	avC12#11	3.55672e-17	$X=8.1855 $Y=1.234
C341	avC13#12	vdd!#1	2.27994e-17	$X=11.487 $Y=1.9335
C342	A#10	avC13#4	2.16841e-17	$X=9.916 $Y=1.693
C343	vdd!#20	avC9#17	5.86607e-18	$X=10.5115 $Y=2.3385
C344	A#10	vdd!#48	3.81672e-18	$X=4.926 $Y=2.815
C345	avC9#9	gnd!#1	4.26216e-17	$X=4.8565 $Y=0.928
C346	gnd!#11	A#8	4.36569e-18	$X=9.999 $Y=0.3245
C347	avC14#4	B#14	1.73271e-17	$X=13.379 $Y=1.8645
C348	avC12#10	vdd!#1	2.3066e-18	$X=8.1755 $Y=1.139
C349	A#2	vdd!#62	1.74702e-17	$X=1.386 $Y=2.8295
C350	gnd!#5	avC14#5	3.04857e-18	$X=13.2665 $Y=0.7165
C351	avC10#5	avC9#13	4.63501e-18	$X=3.731 $Y=0.873
C352	avC11#10	avC9#11	8.70318e-18	$X=3.708 $Y=1.181
C353	avC9#14	A#10	2.89217e-17	$X=9.413 $Y=1.367
C354	A#11	vdd!#1	1.28502e-17	$X=12.9665 $Y=1.9785
C355	avC11#17	avC10#9	1.62694e-18	$X=5.581 $Y=1.19
C356	B#6	Y1#1	1.06195e-18	$X=8.4765 $Y=0.5195
C357	avC9#9	avC10#14	2.35615e-18	$X=5.1635 $Y=0.516
C358	avC14#11	B#14	1.20993e-18	$X=13.6585 $Y=1.745
C359	avC12#4	vdd!#35	4.59162e-18	$X=6.907 $Y=2.148
C360	avC10#11	gnd!#1	4.96647e-18	$X=4.5815 $Y=1.318
C361	avC13#11	avC9#15	2.89272e-17	$X=10.695 $Y=1.204
C362	A#14	avC13#9	2.17963e-18	$X=11.794 $Y=1.13
C363	avC13#11	A#10	4.13813e-18	$X=10.5835 $Y=1.4275
C364	avC9#14	avC13#4	4.23884e-17	$X=10.086 $Y=1.441
C365	B#14	vdd!#1	1.26718e-17	$X=13.3845 $Y=1.9745
C366	avC9#11	avC10#9	1.38137e-18	$X=4.764 $Y=1.119
C367	avC10#11	vdd!#1	1.48297e-17	$X=4.605 $Y=1.33
C368	avC11#13	avC9	2.26162e-18	$X=2.457 $Y=1.8685
C369	avC13#11	vdd!#20	2.79869e-18	$X=10.8705 $Y=2.2125
C370	avC9#9	B#7	5.87923e-18	$X=7.256 $Y=1.0525
C371	A#12	B#15	9.2719e-18	$X=13.065 $Y=0.8495
C372	avC11#17	avC12#4	2.61888e-18	$X=6.312 $Y=1.393
C373	avC14#12	vdd!#1	2.54252e-17	$X=14.6085 $Y=1.9335
C374	B#6	avC10#14	1.56041e-18	$X=5.284 $Y=0.4895
C375	avC11#18	vdd!#1	3.3045e-17	$X=5.747 $Y=1.812
C376	gnd!#9	avC13#11	2.46999e-18	$X=11.033 $Y=0.2045
C377	A#5	gnd!#1	2.33179e-17	$X=0.5395 $Y=0.488
C378	avC9#14	avC13#11	2.72297e-17	$X=10.664 $Y=1.235
C379	gnd!#11	avC9#18	1.11286e-17	$X=10.133 $Y=0.334
C380	avC11#13	avC10	3.18484e-18	$X=3.5565 $Y=1.88
C381	B#6	avC11#16	2.31736e-18	$X=6.702 $Y=0.522
C382	B#6	gnd!#18	1.14268e-17	$X=6.4475 $Y=0.027
C383	B#6	gnd!#1	1.76416e-16	$X=7.483 $Y=0.524
C384	B#5	gnd!#1	2.5001e-17	$X=2.0345 $Y=0.488
C385	avC11#15	B#8	8.70935e-18	$X=6.8745 $Y=1.181
C386	A#15	vdd!#20	1.13979e-17	$X=11.091 $Y=2.6985
C387	B#2	gnd!#27	6.88976e-18	$X=1.605 $Y=0.0255
C388	avC12#5	avC11#15	2.10805e-17	$X=6.8065 $Y=1.1195
C389	avC12#11	gnd!#1	5.84291e-18	$X=7.731 $Y=1.317
C390	avC12#11	vdd!#35	2.0631e-18	$X=7.418 $Y=1.908
C391	gnd!#8	avC13#10	1.17173e-18	$X=11.4465 $Y=0.492
C392	avC9#4	vdd!#1	4.32002e-18	$X=2.2495 $Y=1.22
C393	avC13#11	A#15	1.21849e-17	$X=11.1485 $Y=1.58
C394	gnd!#3	avC14#10	1.48325e-18	$X=14.2635 $Y=0.2915
C395	avC11#11	gnd!#1	2.2517e-17	$X=3.4995 $Y=0.522
C396	B#6	avC12#14	4.7808e-18	$X=8.326 $Y=0.4895
C397	gnd!#6	A#13	6.57274e-18	$X=12.833 $Y=0.2755
C398	B#8	avC12#9	1.32549e-18	$X=7.9355 $Y=1.1195
C399	A#14	avC13#12	1.43564e-18	$X=11.935 $Y=1.6165
C400	avC14#5	A#12	2.0634e-17	$X=13.1015 $Y=1.1205
C401	avC12#11	vdd!#1	1.79243e-17	$X=7.729 $Y=1.329
C402	gnd!#8	avC13#14	1.30695e-17	$X=11.526 $Y=0.2745
C403	B#11	avC9#14	1.5789e-17	$X=11.393 $Y=0.734
C404	avC9#13	gnd!#1	1.87542e-17	$X=3.7195 $Y=0.5645
C405	A#2	vdd!#49	2.50484e-17	$X=2.995 $Y=2.6895
C406	A#15	avC13#10	5.15665e-18	$X=11.396 $Y=1.336
C407	gnd!#17	avC12#5	2.97496e-18	$X=6.9715 $Y=0.7165
C408	A#10	vdd!#1	1.37598e-16	$X=8.466 $Y=2.239
C409	avC12#5	B#8	1.88125e-17	$X=6.984 $Y=1.1115
C410	A#10	vdd!#35	4.14054e-17	$X=7.2085 $Y=2.7525
C411	B#11	avC13#11	1.44837e-17	$X=11.303 $Y=1.1595
C412	A#15	avC14#4	1.46012e-18	$X=12.753 $Y=1.8045
C413	avC10#14	gnd!#1	2.71915e-17	$X=5.1845 $Y=0.488
C414	avC9#14	avC12#14	8.92751e-19	$X=8.4865 $Y=0.523
C415	B#6	avC12#5	3.58989e-18	$X=6.925 $Y=1.0605
C416	vdd!#4	A#11	8.99219e-18	$X=12.919 $Y=2.2425
C417	avC14#5	A#13	1.63117e-18	$X=13.0955 $Y=0.839
C418	avC13#11	vdd!#18	1.36241e-17	$X=11.138 $Y=1.7465
C419	avC9#9	vdd!#46	2.47351e-18	$X=4.9615 $Y=1.8825
C420	avC9#2	vdd!#1	8.65192e-18	$X=2.267 $Y=1.86
C421	A#2	avC11#3	2.04066e-17	$X=0.8035 $Y=1.896
C422	vdd!#51	avC11#9	3.83317e-18	$X=3.8205 $Y=1.9935
C423	Y0#5	vdd!#1	8.26e-18	$X=5.4035 $Y=1.8595
C424	avC9#9	gnd!#52	5.37795e-18	$X=3.983 $Y=0.499
C425	gnd!#12	avC13#7	1.73733e-17	$X=9.578 $Y=0.307
C426	avC12#7	avC11#17	1.1948e-17	$X=6.2765 $Y=1.0175
C427	avC11#3	A#3	2.08578e-17	$X=0.6265 $Y=1.899
C428	B#6	avC13#7	1.55029e-17	$X=9.485 $Y=0.649
C429	A#15	vdd!#13	2.96078e-17	$X=12.565 $Y=2.0455
C430	avC11#7	B#2	2.79337e-17	$X=0.848 $Y=0.61
C431	avC11#13	vdd!#51	1.37475e-17	$X=3.995 $Y=1.981
C432	avC12#7	B#10	3.63544e-18	$X=6.6825 $Y=0.6075
C433	avC11	vdd!#60	1.42081e-17	$X=1.684 $Y=1.95
C434	B#6	gnd!#43	2.87981e-17	$X=8.128 $Y=0.4715
C435	vdd!#46	avC10#12	2.34865e-17	$X=5.0855 $Y=1.963
C436	avC12#7	gnd!#1	7.42926e-18	$X=6.4545 $Y=0.657
C437	avC10#10	vdd!#46	1.59085e-17	$X=4.985 $Y=1.5415
C438	vdd!#18	avC9#17	2.64118e-18	$X=10.7425 $Y=1.9845
C439	Y2#2	gnd!#1	1.06993e-17	$X=11.714 $Y=0.5945
C440	avC12#11	Y1#5	3.21926e-18	$X=8.284 $Y=1.67
C441	gnd!#43	avC12#14	1.2537e-17	$X=8.2535 $Y=0.478
C442	avC11#18	vdd!#46	1.53044e-17	$X=5.1385 $Y=1.9545
C443	vdd!#60	avC9#2	3.72612e-17	$X=2.047 $Y=1.9235
C444	Y1#2	A#8	1.65574e-18	$X=9.1765 $Y=0.565
C445	B#11	Y2#2	1.74564e-17	$X=11.81 $Y=0.5895
C446	avC9#7	B#5	1.02647e-17	$X=2.153 $Y=0.511
C447	gnd!#55	B	1.049e-17	$X=1.794 $Y=0.6
C448	vdd!#55	avC11#9	1.95058e-17	$X=3.432 $Y=1.9935
C449	vdd!#51	avC10#12	3.41383e-18	$X=4.7 $Y=1.97
C450	Y2#5	A#14	1.33895e-17	$X=12.0515 $Y=1.5755
C451	avC13#4	vdd!#23	4.30569e-17	$X=10.3715 $Y=1.881
C452	A#2	vdd!#55	1.6433e-17	$X=3.1185 $Y=2.033
C453	vdd!#23	avC9#17	1.86545e-17	$X=10.3665 $Y=1.9915
C454	vdd!#60	A#3	2.92643e-18	$X=1.1435 $Y=1.963
C455	gnd!#37	avC13#10	1.36371e-17	$X=11.299 $Y=0.7
C456	gnd!#58	A#5	1.30513e-17	$X=0.4285 $Y=0.478
C457	gnd!#46	B#8	7.60975e-18	$X=7.1105 $Y=0.7255
C458	avC13#11	vdd!#23	7.36771e-18	$X=10.6255 $Y=1.7575
C459	vdd!#18	Y2#5	3.94009e-17	$X=11.517 $Y=1.9235
C460	gnd!#46	avC12#14	9.02527e-19	$X=7.6955 $Y=0.48
C461	gnd!#31	avC14#10	1.049e-17	$X=14.437 $Y=0.7065
C462	vdd!#27	avC12#12	2.25742e-18	$X=8.9665 $Y=1.97
C463	vdd!#41	avC12#4	3.96722e-17	$X=6.6225 $Y=1.882
C464	Y0#5	vdd!#41	1.86332e-18	$X=5.9085 $Y=1.9305
C465	B#6	gnd!#46	3.83362e-17	$X=7.1095 $Y=0.4745
C466	avC11#7	gnd!#1	9.94369e-18	$X=0.7495 $Y=0.6145
C467	Y2#5	A#11	1.08644e-18	$X=12.3635 $Y=1.916
C468	gnd!#2	Y3#2	8.39098e-18	$X=14.778 $Y=0.341
C469	avC11#13	avC9#2	2.62958e-17	$X=2.367 $Y=1.847
C470	avC10#7	gnd!#1	7.52498e-18	$X=3.2895 $Y=0.657
C471	gnd!#40	avC9#18	1.18957e-17	$X=10.16 $Y=0.5115
C472	Y1#2	gnd!#1	1.00557e-17	$X=8.574 $Y=0.6055
C473	vdd!#27	avC9#17	3.90379e-18	$X=9.977 $Y=1.9915
C474	avC10#7	avC9#13	3.62566e-18	$X=3.5175 $Y=0.6075
C475	avC12#7	avC11#15	2.10871e-17	$X=6.5415 $Y=0.916
C476	avC14#11	vdd!#7	1.59757e-17	$X=14.316 $Y=1.74
C477	gnd!#52	avC11#11	3.69818e-18	$X=3.7335 $Y=0.495
C478	A	vdd!#66	4.87329e-17	$X=0.235 $Y=1.7625
C479	vdd!#66	A#3	2.39902e-17	$X=0.4405 $Y=1.963
C480	avC13#7	A#7	2.10855e-17	$X=9.6965 $Y=0.916
C481	vdd!#7	Y3#5	4.14995e-17	$X=14.652 $Y=1.9235
C482	Y0#2	avC11#16	1.51826e-18	$X=6.009 $Y=0.565
C483	gnd!#34	A#13	3.55359e-18	$X=13.1935 $Y=0.495
C484	A#10	vdd!#46	1.61905e-17	$X=5.2475 $Y=2.016
C485	A#15	Y2#5	5.51951e-17	$X=11.722 $Y=1.9135
C486	Y0#5	avC10#12	1.93621e-17	$X=5.2895 $Y=1.8925
C487	A#12	vdd!#13	1.1498e-17	$X=12.862 $Y=1.558
C488	B#11	gnd!#31	1.81341e-17	$X=14.333 $Y=0.473
C489	vdd!#7	B#14	2.8275e-18	$X=13.88 $Y=1.9845
C490	avC9#5	avC10#7	1.02986e-17	$X=3.0955 $Y=0.7235
C491	B#6	avC12#7	1.62088e-17	$X=6.5145 $Y=0.649
C492	avC10#7	gnd!#52	1.15464e-17	$X=3.6755 $Y=0.5455
C493	avC10#7	avC11#10	2.10748e-17	$X=3.3765 $Y=0.916
C494	avC10#7	B#5	1.0321e-18	$X=2.564 $Y=0.559
C495	Y1#2	avC12#9	1.53066e-18	$X=8.461 $Y=0.8675
C496	avC14#7	A#12	2.27573e-17	$X=12.8365 $Y=0.916
C497	avC11#13	vdd!#55	4.46944e-17	$X=3.286 $Y=1.981
C498	Y2#2	avC13#9	9.55735e-19	$X=11.6025 $Y=0.858
C499	Y0#2	avC10#9	1.52786e-18	$X=5.281 $Y=0.8675
C500	gnd!#34	B#13	1.00602e-17	$X=13.4055 $Y=0.7245
C501	vdd!#37	avC11#14	3.96172e-18	$X=6.9855 $Y=1.9935
C502	avC9#14	gnd!#40	5.51772e-18	$X=10.2225 $Y=0.506
C503	gnd!#8	Y2#2	8.39098e-18	$X=11.6455 $Y=0.339
C504	B#6	gnd!#49	1.58207e-17	$X=5.072 $Y=0.4715
C505	A#10	vdd!#32	1.87155e-17	$X=8.1825 $Y=2.016
C506	vdd!#32	avC12#12	2.36657e-17	$X=8.2655 $Y=1.963
C507	avC14#7	A#13	1.33911e-17	$X=12.867 $Y=0.581
C508	avC9#14	Y1#2	8.00137e-18	$X=8.6805 $Y=0.6315
C509	vdd!#10	B#14	1.86453e-17	$X=13.5065 $Y=1.9915
C510	gnd!#20	Y0#2	8.39098e-18	$X=5.324 $Y=0.34
C511	avC14#7	A#14	1.26488e-17	$X=12.6395 $Y=0.885
C512	Y1#5	A#9	9.96186e-18	$X=8.938 $Y=1.66
C513	gnd!#31	avC14#14	1.28192e-17	$X=14.5285 $Y=0.478
C514	avC11#17	vdd!#41	9.96014e-18	$X=6.2665 $Y=1.5985
C515	A#2	avC9#2	1.39575e-17	$X=2.1555 $Y=1.885
C516	Y0#2	gnd!#1	1.00423e-17	$X=5.3945 $Y=0.6055
C517	avC14#4	vdd!#10	4.90724e-17	$X=13.518 $Y=1.883
C518	avC9#9	avC12#7	1.42475e-17	$X=6.318 $Y=0.68
C519	gnd!#14	Y1#2	8.39098e-18	$X=8.504 $Y=0.34
C520	vdd!#13	avC13#12	2.78175e-18	$X=12.1065 $Y=1.97
C521	gnd!#49	avC10#14	1.28022e-17	$X=5.0735 $Y=0.478
C522	avC9#7	avC10#7	2.56656e-18	$X=2.621 $Y=0.575
C523	vdd!#10	avC14#11	4.71483e-18	$X=13.8135 $Y=1.7505
C524	vdd!#37	avC12#12	3.59045e-18	$X=7.873 $Y=1.97
C525	avC9#14	vdd!#32	2.98251e-18	$X=8.391 $Y=1.853
C526	avC11#3	vdd!#60	7.67534e-18	$X=1.347 $Y=1.936
C527	vdd!#27	avC13#4	3.97543e-17	$X=9.8075 $Y=1.881
C528	vdd!#13	B#14	4.14579e-18	$X=13.117 $Y=1.9915
C529	B#7	vdd!#37	7.91096e-18	$X=7.413 $Y=1.478
C530	avC11#7	A#5	1.28375e-17	$X=0.6425 $Y=0.55
C531	A#7	vdd!#27	1.1498e-17	$X=9.722 $Y=1.558
C532	Y3#2	avC14#9	2.1643e-18	$X=14.7345 $Y=0.875
C533	B#2	avC9#7	1.46089e-17	$X=2.229 $Y=0.531
C534	avC12#7	gnd!#46	1.15464e-17	$X=6.8405 $Y=0.5455
C535	avC13#7	A#8	1.28158e-17	$X=9.727 $Y=0.581
C536	avC11	vdd!#66	3.72035e-18	$X=0.684 $Y=1.95
C537	avC10#11	Y0#5	2.86075e-18	$X=5.113 $Y=1.669
C538	vdd!#32	Y1#5	3.94009e-17	$X=8.377 $Y=1.9235
C539	B#6	Y1#2	1.4995e-17	$X=8.5265 $Y=0.6015
C540	vdd!#41	avC11#14	1.95472e-17	$X=6.597 $Y=1.9935
C541	gnd!#49	Y0#2	1.83093e-17	$X=5.172 $Y=0.5335
C542	gnd!#24	avC10#7	1.73733e-17	$X=3.257 $Y=0.3085
C543	Y3#2	avC14#14	1.33562e-17	$X=14.7425 $Y=0.55
C544	Y1#5	A#6	2.90879e-18	$X=9.2235 $Y=1.916
C545	B#11	gnd!#34	3.75809e-17	$X=13.364 $Y=0.4765
C546	gnd!#34	avC14#14	9.94159e-19	$X=13.981 $Y=0.48
C547	avC11#3	B#3	2.87609e-18	$X=1.5015 $Y=1.899
C548	gnd!#52	avC10#14	1.61368e-18	$X=4.5235 $Y=0.48
C549	gnd!#58	A	1.36371e-17	$X=0.272 $Y=0.6685
C550	avC11#3	vdd!#1	2.38886e-17	$X=0.7905 $Y=1.8615
C551	A#2	vdd!#60	1.69713e-17	$X=1.7655 $Y=2.0195
C552	gnd!#58	avC11#7	2.0449e-17	$X=0.524 $Y=0.5365
C553	Y2#2	avC13#14	1.33012e-17	$X=11.6105 $Y=0.5415
C554	avC9#14	gnd!#43	3.78815e-18	$X=8.28 $Y=0.5025
C555	A#10	vdd!#37	1.72576e-17	$X=7.416 $Y=2.0295
C556	avC11#15	vdd!#41	1.1498e-17	$X=6.567 $Y=1.558
C557	avC11#10	vdd!#55	1.1498e-17	$X=3.402 $Y=1.558
C558	vdd!#46	avC9#12	2.49262e-18	$X=4.4225 $Y=1.9845
C559	avC13#7	A#9	1.1948e-17	$X=9.4805 $Y=1.0135
C560	gnd!#52	avC9#11	8.93892e-18	$X=3.9455 $Y=0.7235
C561	A#15	vdd!#18	2.03871e-17	$X=11.3915 $Y=2.034
C562	Y3#5	avC14#12	2.07942e-17	$X=14.7445 $Y=1.8925
C563	avC13#7	gnd!#40	1.15464e-17	$X=9.9955 $Y=0.5455
C564	avC10#11	vdd!#46	1.46343e-17	$X=4.827 $Y=1.7445
C565	avC11#12	vdd!#55	1.01092e-17	$X=3.102 $Y=1.6
C566	vdd!#13	avC14#4	4.19425e-17	$X=12.9495 $Y=1.883
C567	A#10	Y1#5	2.94447e-17	$X=8.5705 $Y=1.8795
C568	gnd!#18	avC12#7	1.73733e-17	$X=6.4205 $Y=0.3105
C569	B#2	gnd!#52	1.64059e-17	$X=3.7945 $Y=0.479
C570	gnd!#46	B#10	1.09916e-17	$X=7.005 $Y=0.5115
C571	gnd!#49	avC10#10	1.10076e-17	$X=4.9815 $Y=0.7055
C572	vdd!#51	avC9#12	1.8657e-17	$X=4.0465 $Y=1.9915
C573	gnd!#43	Y1#2	1.83093e-17	$X=8.352 $Y=0.5335
C574	avC12#7	avC11#16	1.27474e-17	$X=6.572 $Y=0.581
C575	avC14#11	Y3#5	3.67247e-18	$X=14.5965 $Y=1.6655
C576	avC9#9	vdd!#41	2.72985e-18	$X=6.307 $Y=1.897
C577	Y3#5	vdd!#1	4.21449e-17	$X=14.8175 $Y=1.8595
C578	vdd!#18	avC13#12	2.35625e-17	$X=11.4055 $Y=1.963
C579	avC14#7	gnd!#34	1.15464e-17	$X=13.1355 $Y=0.5455
C580	A#10	vdd!#23	1.71677e-17	$X=10.3295 $Y=2.0295
C581	avC10#4	vdd!#51	4.00938e-17	$X=4.054 $Y=1.882
C582	vdd!#23	A#6	3.95861e-18	$X=10.1405 $Y=1.9935
C583	vdd!#46	Y0#5	3.72612e-17	$X=5.197 $Y=1.9235
C584	gnd!#40	A#8	3.69818e-18	$X=10.0535 $Y=0.495
C585	avC9#2	B#3	1.95514e-17	$X=2.1395 $Y=1.8925
C586	Y1#2	avC12#14	1.30461e-17	$X=8.469 $Y=0.5465
C587	B#11	gnd!#37	1.65168e-17	$X=11.4115 $Y=0.473
C588	vdd!#23	avC13#12	3.63294e-18	$X=11.02 $Y=1.97
C589	gnd!#37	Y2#2	1.83093e-17	$X=11.4955 $Y=0.529
C590	vdd!#55	avC9#12	3.86605e-18	$X=3.657 $Y=1.9915
C591	avC11#18	vdd!#41	3.45533e-17	$X=6.3155 $Y=1.9665
C592	avC9#15	vdd!#23	6.87306e-18	$X=10.598 $Y=1.429
C593	avC12#10	vdd!#32	1.59085e-17	$X=8.167 $Y=1.5375
C594	B#13	vdd!#10	4.83915e-18	$X=13.5215 $Y=1.5695
C595	avC10#4	avC9#2	1.32532e-18	$X=2.7245 $Y=1.7805
C596	vdd!#60	B#3	2.55398e-17	$X=1.9355 $Y=1.963
C597	avC9#2	avC11#12	4.02e-18	$X=2.656 $Y=1.5515
C598	B#2	gnd!#55	2.83741e-17	$X=1.836 $Y=0.4755
C599	avC10#11	vdd!#51	6.1807e-18	$X=4.3165 $Y=1.7555
C600	avC9#9	avC10#7	7.66149e-18	$X=3.423 $Y=0.68
C601	gnd!#31	Y3#2	2.0449e-17	$X=14.624 $Y=0.5365
C602	gnd!#55	B#5	1.22717e-17	$X=1.9235 $Y=0.478
C603	B#6	Y0#2	1.43584e-17	$X=5.4855 $Y=0.6015
C604	avC9#7	gnd!#1	6.43961e-18	$X=2.2445 $Y=0.5295
C605	vdd!#27	A#6	1.88939e-17	$X=9.752 $Y=1.9935
C606	Y2#5	avC13#12	1.85032e-17	$X=11.6095 $Y=1.8925
C607	A#14	vdd!#13	1.00571e-17	$X=12.6375 $Y=1.642
C608	B#7	Y1#2	5.22085e-19	$X=8.1135 $Y=0.7985
C609	avC9#16	vdd!#23	5.68074e-18	$X=10.382 $Y=1.5725
C610	Y2#5	vdd!#1	6.28545e-18	$X=11.696 $Y=1.8595
C611	gnd!#37	avC13#14	1.28022e-17	$X=11.3935 $Y=0.478
C612	avC14#7	gnd!#1	8.75978e-18	$X=12.749 $Y=0.657
C613	avC9#9	gnd!#46	5.4043e-18	$X=6.965 $Y=0.499
C614	avC9#10	vdd!#51	7.29386e-18	$X=4.2745 $Y=1.432
C615	B#11	avC14#7	1.96574e-17	$X=12.7765 $Y=0.6435
C616	Y0#5	avC11#14	1.10178e-18	$X=6.0565 $Y=1.916
C617	gnd!#40	avC9#16	8.93892e-18	$X=10.2655 $Y=0.722
C618	avC11#13	avC10#7	1.01669e-18	$X=3.267 $Y=0.798
C619	A#9	vdd!#27	2.86914e-17	$X=9.4755 $Y=1.726
C620	vdd!#66	avC11#3	3.99069e-17	$X=0.5155 $Y=1.936
C621	avC10#7	avC11#11	1.28087e-17	$X=3.407 $Y=0.581
C622	B	vdd!#60	2.06811e-17	$X=1.7735 $Y=1.712
C623	avC13#11	Y2#5	2.98046e-18	$X=11.4255 $Y=1.6705
C624	Y0#2	avC10#14	1.31332e-17	$X=5.289 $Y=0.5465
C625	A#10	Y0#5	1.39905e-17	$X=5.6095 $Y=1.8795
C626	vdd!#7	avC14#12	2.40166e-17	$X=14.5405 $Y=1.963
C627	A#10	vdd!#41	2.23172e-17	$X=6.64 $Y=2.0295
C628	B#2	gnd!#58	2.7526e-18	$X=0.4445 $Y=0.4755
C629	avC13#10	vdd!#18	1.59085e-17	$X=11.301 $Y=1.5495
C630	avC12#11	vdd!#32	1.64739e-17	$X=7.9965 $Y=1.746
C631	B#8	vdd!#37	4.62875e-18	$X=7.226 $Y=1.5685
C632	B#2	avC10#7	1.55136e-17	$X=3.157 $Y=0.647
C633	gnd!#40	avC13#14	1.61368e-18	$X=10.8435 $Y=0.48
C634	avC9#9	Y0#2	9.62698e-18	$X=5.3595 $Y=0.626
C635	gnd!#26	avC9#7	8.39098e-18	$X=2.1845 $Y=0.331
C636	vdd!#10	A#11	4.11318e-18	$X=13.2805 $Y=1.9935
C637	avC14#4	gnd!#34	2.80618e-18	$X=13.373 $Y=0.692
C638	avC9#11	vdd!#51	5.25995e-18	$X=4.062 $Y=1.571
C639	avC14#7	B#15	3.71529e-18	$X=12.9775 $Y=0.6075
C640	A#2	vdd!#51	1.58336e-17	$X=3.8785 $Y=2.033
C641	gnd!#34	B#15	1.09916e-17	$X=13.3 $Y=0.5115
C642	gnd!#52	avC9#13	1.18957e-17	$X=3.84 $Y=0.5115
C643	vdd!#55	avC10#4	3.75941e-17	$X=3.488 $Y=1.882
C644	vdd!#10	avC14#12	3.94335e-18	$X=14.1575 $Y=1.97
C645	gnd!#6	avC14#7	1.73936e-17	$X=12.718 $Y=0.307
C646	Y1#5	vdd!#1	8.17165e-18	$X=8.5695 $Y=1.8595
C647	vdd!#37	B#9	1.86786e-17	$X=7.2115 $Y=1.9915
C648	A#2	vdd!#66	8.30281e-17	$X=0.414 $Y=2.0195
C649	B#12	vdd!#10	7.70056e-18	$X=13.7115 $Y=1.4835
C650	avC9#9	gnd!#49	3.72879e-18	$X=4.9675 $Y=0.4955
C651	A#10	vdd!#27	6.5591e-17	$X=9.554 $Y=2.0295
C652	avC13#7	gnd!#1	7.90889e-18	$X=9.609 $Y=0.657
C653	avC12#4	vdd!#37	4.53944e-17	$X=7.1895 $Y=1.882
C654	gnd!#55	avC9#7	1.77078e-17	$X=2.05 $Y=0.5015
C655	B#6	gnd!#40	1.64059e-17	$X=10.141 $Y=0.4745
C656	vdd!#41	avC10#12	2.42618e-18	$X=5.7985 $Y=1.97
C657	vdd!#13	A#11	1.96243e-17	$X=12.892 $Y=1.9935
C658	Y3#2	gnd!#1	3.05976e-17	$X=14.849 $Y=0.6145
C659	avC11#18	Y0#5	2.59857e-17	$X=5.459 $Y=1.843
C660	avC10#7	avC11#12	1.19535e-17	$X=3.112 $Y=1.0175
C661	gnd!#43	avC12#10	1.10076e-17	$X=8.163 $Y=0.7085
C662	avC13#7	avC9#18	3.62412e-18	$X=9.8375 $Y=0.6075
C663	gnd!#46	avC11#16	3.55359e-18	$X=6.8985 $Y=0.495
C664	avC9#14	vdd!#27	2.72985e-18	$X=9.672 $Y=1.867
C665	gnd!#29	avC11#7	8.39098e-18	$X=0.678 $Y=0.341
C666	Y1#5	avC12#12	1.95612e-17	$X=8.4695 $Y=1.8925
C667	vdd!#37	avC12#11	4.18965e-18	$X=7.4745 $Y=1.757
C668	avC14#10	vdd!#7	1.59085e-17	$X=14.4405 $Y=1.54
C669	avC9#14	avC13#7	1.48201e-17	$X=9.6385 $Y=0.6855
C670	vdd!#41	B#9	3.98813e-18	$X=6.822 $Y=1.9915
C671	Y2#2	A#13	1.81502e-18	$X=12.306 $Y=0.56
C672	Y0#5	avC11#17	3.76224e-18	$X=5.8155 $Y=1.55
C673	A#10	vdd!#22	7.17318e-19	$X=10.193 $Y=1.954
C674	A#10	vdd!#36	7.52333e-19	$X=7.472 $Y=1.954
C675	A#10	vdd!#26	9.49192e-19	$X=9.503 $Y=1.954
C676	A#2	vdd!#65	1.52282e-18	$X=0.4945 $Y=1.9455
C677	A#15	vdd!#10	1.6225e-18	$X=13.229 $Y=2.0455
C678	B#11	vdd!#17	1.30465e-18	$X=11.6895 $Y=1.593
C679	B#2	vdd!#60	1.92999e-18	$X=1.8465 $Y=1.812
C680	B#11	vdd!#13	2.09986e-18	$X=12.81 $Y=1.825
C681	B#11	vdd!#18	2.31326e-18	$X=11.516 $Y=1.8105
C682	vdd!#55	B#3	2.46425e-18	$X=2.6415 $Y=1.97
C683	vdd!#32	B#9	2.49082e-18	$X=7.5945 $Y=1.9845
C684	gnd!#55	A#5	1.37941e-18	$X=1.2175 $Y=0.478
C685	A#10	gnd!#1	1.58292e-18	$X=8.522 $Y=2.204
C686	A#2	gnd!#1	1.66724e-18	$X=1.2115 $Y=2.199
C687	gnd!#12	A#9	1.8153e-18	$X=9.4555 $Y=0.6055
C688	gnd!#6	A#14	2.04091e-18	$X=12.611 $Y=0.456
C689	B#6	gnd!#48	4.87036e-19	$X=5.175 $Y=0.5195
C690	B#11	gnd!#33	5.53821e-19	$X=13.326 $Y=0.5245
C691	gnd!#17	B#8	7.71197e-19	$X=7.116 $Y=0.594
C692	gnd!#5	B#13	8.82224e-19	$X=13.411 $Y=0.593
C693	gnd!#43	B#10	1.02537e-18	$X=7.615 $Y=0.5095
C694	gnd!#31	B#15	1.16177e-18	$X=13.8985 $Y=0.5095
C695	gnd!#26	B	1.17173e-18	$X=1.976 $Y=0.296
C696	B#6	gnd!#42	1.26385e-18	$X=8.124 $Y=0.5195
C697	B#6	gnd!#45	1.77562e-18	$X=7.104 $Y=0.524
C698	avC11#13	vdd!#48	1.14144e-18	$X=4.2735 $Y=2.6725
C699	avC11#13	vdd!#54	1.16614e-18	$X=3.2785 $Y=1.883
C700	avC11#18	vdd!#37	1.8222e-18	$X=6.971 $Y=1.9665
C701	avC11	vdd!#62	1.87244e-18	$X=1.4 $Y=2.602
C702	A#10	B#8	1.85292e-18	$X=7.234 $Y=1.243
C703	A#10	B#9	1.88429e-18	$X=7.2085 $Y=1.9865
C704	B#6	A#9	1.92701e-18	$X=9.191 $Y=1.3875
C705	B#6	A#8	2.05714e-18	$X=9.711 $Y=0.522
C706	B#11	A#13	2.18215e-18	$X=12.964 $Y=0.522
C707	B#11	A#12	2.20832e-18	$X=12.938 $Y=1.1195
C708	A#2	B#3	2.23793e-18	$X=1.9635 $Y=1.953
C709	A#10	B#7	2.28488e-18	$X=7.544 $Y=1.1325
C710	A#2	B	2.62139e-18	$X=1.5905 $Y=1.3195
C711	B#2	A#5	2.70016e-18	$X=0.651 $Y=0.4935
C712	avC9#5	vdd!#55	8.50193e-19	$X=3.0745 $Y=1.698
C713	avC9#9	vdd!#55	1.39925e-18	$X=3.4865 $Y=1.897
C714	avC9#2	vdd!#55	1.91709e-18	$X=2.751 $Y=1.931
C715	avC10#11	vdd!#48	9.00124e-19	$X=4.562 $Y=2.208
C716	avC12#11	vdd!#36	7.7065e-19	$X=7.5305 $Y=1.597
C717	avC12#4	vdd!#36	7.97657e-19	$X=7.114 $Y=1.7655
C718	avC13#4	vdd!#20	5.20384e-19	$X=10.593 $Y=2.3915
C719	avC14#11	vdd!#9	6.41296e-19	$X=13.887 $Y=1.5915
C720	gnd!#1	avC11#12	6.84117e-19	$X=2.9595 $Y=1.3275
C721	avC11#7	gnd!#55	7.18851e-19	$X=1.3255 $Y=0.5365
C722	avC11	gnd!#55	1.33057e-18	$X=1.741 $Y=0.741
C723	gnd!#24	avC11#12	1.83726e-18	$X=3.0915 $Y=0.6745
C724	gnd!#18	avC11#17	1.88499e-18	$X=6.2535 $Y=0.6795
C725	avC9#14	gnd!#14	5.53423e-19	$X=8.564 $Y=0.094
C726	avC9#9	gnd!#21	6.30034e-19	$X=4.7465 $Y=0.0335
C727	avC9#14	gnd!#15	6.8196e-19	$X=8.0135 $Y=0.044
C728	avC9#9	gnd!#17	7.29075e-19	$X=6.887 $Y=0.131
C729	avC9#9	gnd!#23	7.29075e-19	$X=4.015 $Y=0.131
C730	avC9#14	gnd!#11	7.98364e-19	$X=10.2065 $Y=0.1515
C731	gnd!#23	avC9#11	8.22224e-19	$X=3.951 $Y=0.5905
C732	avC9#5	gnd!#24	8.38309e-19	$X=3.065 $Y=0.2045
C733	gnd!#11	avC9#16	9.79175e-19	$X=10.271 $Y=0.5885
C734	avC9#9	gnd!#18	1.05204e-18	$X=6.271 $Y=0.071
C735	avC9#14	gnd!#12	1.05384e-18	$X=9.5825 $Y=0.088
C736	avC9#10	gnd!#1	1.14582e-18	$X=4.3245 $Y=1.1795
C737	gnd!#37	avC9#18	1.17803e-18	$X=10.761 $Y=0.5095
C738	gnd!#49	avC9#13	1.17803e-18	$X=4.441 $Y=0.5095
C739	avC9#15	gnd!#1	1.36824e-18	$X=10.649 $Y=1.1755
C740	gnd!#21	avC10#10	7.9092e-19	$X=4.8075 $Y=0.292
C741	avC10#4	gnd!#52	8.27979e-19	$X=3.9115 $Y=0.694
C742	avC12#4	gnd!#46	5.14401e-19	$X=7.0585 $Y=0.6925
C743	gnd!#15	avC12#10	7.20302e-19	$X=7.988 $Y=0.302
C744	A#10	avC11#17	1.61223e-18	$X=6.2475 $Y=1.3715
C745	avC11#7	A#1	1.66946e-18	$X=0.6345 $Y=0.875
C746	A#10	avC11#15	1.75154e-18	$X=6.752 $Y=1.2525
C747	A#2	avC11#9	1.76739e-18	$X=3.337 $Y=1.9935
C748	A	avC11#3	1.78956e-18	$X=0.4635 $Y=1.6445
C749	gnd!#11	avC13#4	4.05867e-19	$X=10.221 $Y=0.5015
C750	avC13#4	gnd!#40	8.54689e-19	$X=10.23 $Y=0.696
C751	avC9#14	A#8	1.46321e-18	$X=9.8245 $Y=0.5565
C752	A#2	avC9#12	1.76666e-18	$X=3.721 $Y=1.99
C753	A#10	avC9#16	1.85292e-18	$X=10.171 $Y=1.244
C754	A#10	avC9#15	1.86686e-18	$X=10.5755 $Y=1.211
C755	A#10	avC9#17	1.88811e-18	$X=10.1525 $Y=1.9865
C756	A#2	avC10#11	6.22297e-19	$X=4.0735 $Y=1.4505
C757	A#10	avC10#10	6.83738e-19	$X=5.2395 $Y=1.206
C758	avC11#5	B#1	7.18254e-19	$X=1.2765 $Y=1.1215
C759	avC11#7	B#5	7.49814e-19	$X=1.4025 $Y=0.55
C760	avC11#12	B#3	9.81315e-19	$X=2.568 $Y=1.582
C761	B#6	avC11#17	1.61117e-18	$X=6.193 $Y=1.286
C762	avC11#12	B#1	1.62954e-18	$X=2.424 $Y=1.1905
C763	B#2	avC11#12	1.75543e-18	$X=2.873 $Y=1.259
C764	B#2	avC9#6	1.28501e-18	$X=2.1955 $Y=0.5245
C765	B#2	avC9#11	1.33531e-18	$X=3.7405 $Y=1.1
C766	B#6	avC9#16	1.39763e-18	$X=10.1015 $Y=1.128
C767	B#2	avC9#13	1.97033e-18	$X=3.561 $Y=0.564
C768	B#6	avC9#18	1.97033e-18	$X=9.906 $Y=0.562
C769	A#10	avC13#7	7.68748e-19	$X=9.5445 $Y=0.7485
C770	B#2	avC10#6	6.34887e-19	$X=3.144 $Y=0.529
C771	B#7	avC12#14	4.17669e-19	$X=7.994 $Y=0.73
C772	B#9	avC12#12	5.57187e-19	$X=7.7285 $Y=1.9505
C773	B#6	avC12#6	6.17745e-19	$X=6.5475 $Y=0.524
C774	B#6	avC13#6	6.46316e-19	$X=9.4735 $Y=0.524
C775	B#12	avC14#14	5.59859e-19	$X=14.285 $Y=0.727
C776	B#14	avC14#12	6.28304e-19	$X=14.0135 $Y=1.9505
C777	avC9#5	avC11#5	9.35506e-19	$X=0.96 $Y=1.118
C778	avC11#13	avC9#10	1.06273e-18	$X=4.2335 $Y=1.225
C779	avC11#13	avC9#11	1.06838e-18	$X=3.8505 $Y=1.261
C780	avC9#9	avC11#16	1.10992e-18	$X=6.541 $Y=0.5495
C781	avC9#5	avC11#7	1.15624e-18	$X=1.0845 $Y=0.676
C782	avC9#2	avC11#9	1.18528e-18	$X=2.8985 $Y=1.9165
C783	avC9#7	avC11#11	1.18557e-18	$X=2.769 $Y=0.526
C784	avC11#13	avC9#12	1.2394e-18	$X=3.833 $Y=1.9465
C785	avC9#9	avC11#11	1.57877e-18	$X=3.592 $Y=0.5495
C786	avC10#5	avC9#10	5.82253e-19	$X=4.0395 $Y=1.132
C787	avC9#12	avC10#12	6.10284e-19	$X=4.556 $Y=1.9505
C788	avC9#10	avC10#9	6.87434e-19	$X=4.7335 $Y=1.137
C789	avC10#4	avC9#4	7.84516e-19	$X=2.387 $Y=1.253
C790	avC9#14	avC13#9	5.34704e-19	$X=11.3905 $Y=1.0795
C791	avC9#17	avC13#12	6.09852e-19	$X=10.876 $Y=1.9505
C792	avC13#5	avC9#15	7.09149e-19	$X=10.3625 $Y=1.13
C793	avC13#4	avC9#15	8.29881e-19	$X=10.5625 $Y=1.2505
C794	A	gnd!	5.86339e-18	$X=0.1295 $Y=0.155
C795	Y0	gnd!	1.67074e-18	$X=2.1985 $Y=0.4445
C796	Y1	gnd!	2.0867e-18	$X=3.4455 $Y=0.4445
C797	Y2	gnd!	4.64125e-18	$X=4.528 $Y=0.4255
C798	Y3	gnd!	3.40356e-19	$X=6.063 $Y=0.46
C799	I32/avC6	gnd!	9.50995e-19	$X=4.6805 $Y=0.1835
C800	I31/avC6	gnd!	1.60974e-18	$X=3.5775 $Y=0.1835
C801	I30/avC6	gnd!	1.60974e-18	$X=2.469 $Y=0.1835
C802	I29/avC6	gnd!	1.60974e-18	$X=1.357 $Y=0.1835
C803	B#3	gnd!	5.32438e-19	$X=0.516 $Y=0.385
C804	avC11#9	gnd!	8.61369e-20	$X=0.8375 $Y=0.407
C805	avC9#12	gnd!	3.05059e-19	$X=0.92 $Y=0.4045
C806	avC10#12	gnd!	2.2234e-19	$X=1.1455 $Y=0.385
C807	avC11#14	gnd!	8.10796e-20	$X=1.491 $Y=0.407
C808	B#9	gnd!	3.05398e-19	$X=1.5705 $Y=0.4045
C809	avC12#12	gnd!	2.13406e-19	$X=1.781 $Y=0.385
C810	A#6	gnd!	9.46099e-20	$X=2.142 $Y=0.407
C811	avC9#17	gnd!	3.07752e-19	$X=2.2185 $Y=0.4045
C812	avC13#12	gnd!	2.21822e-19	$X=2.409 $Y=0.385
C813	A#11	gnd!	8.70908e-20	$X=2.7905 $Y=0.407
C814	B#14	gnd!	7.47304e-19	$X=2.864 $Y=0.4045
C815	avC14#12	gnd!	2.25375e-19	$X=3.0355 $Y=0.385
C816	A#5	gnd!	4.28093e-19	$X=0.252 $Y=0.139
C817	avC11#11	gnd!	5.22056e-19	$X=1.0515 $Y=0.1415
C818	avC9#13	gnd!	4.26825e-19	$X=1.0275 $Y=0.14
C819	avC10#14	gnd!	1.2849e-18	$X=1.582 $Y=0.139
C820	avC11#16	gnd!	1.09592e-19	$X=1.9125 $Y=0.1415
C821	B#10	gnd!	1.2646e-18	$X=1.815 $Y=0.14
C822	avC12#14	gnd!	1.39308e-18	$X=2.493 $Y=0.139
C823	A#8	gnd!	1.5808e-20	$X=2.7705 $Y=0.1415
C824	avC9#18	gnd!	2.92281e-19	$X=2.5995 $Y=0.14
C825	avC13#14	gnd!	1.563e-18	$X=3.392 $Y=0.139
C826	A#13	gnd!	2.59992e-19	$X=3.6245 $Y=0.1415
C827	B#15	gnd!	2.38856e-19	$X=3.3805 $Y=0.14
C828	avC14#14	gnd!	2.38856e-19	$X=4.29 $Y=0.139
C829	A#1	gnd!	5.29089e-19	$X=0.265 $Y=0.3475
C830	B#1	gnd!	7.53604e-19	$X=0.742 $Y=0.3475
C831	avC11#10	gnd!	1.10235e-18	$X=0.861 $Y=0.258
C832	avC9#11	gnd!	1.73663e-18	$X=0.9025 $Y=0.2335
C833	avC10#9	gnd!	8.85059e-19	$X=1.746 $Y=0.3475
C834	avC11#15	gnd!	5.44027e-19	$X=1.5485 $Y=0.258
C835	B#8	gnd!	1.1187e-18	$X=1.547 $Y=0.2355
C836	avC12#9	gnd!	8.72035e-19	$X=2.76 $Y=0.3475
C837	A#7	gnd!	5.91633e-19	$X=2.2345 $Y=0.258
C838	avC9#16	gnd!	1.12799e-18	$X=2.15 $Y=0.232
C839	avC13#9	gnd!	2.35036e-18	$X=3.7615 $Y=0.3475
C840	A#12	gnd!	4.93944e-19	$X=2.9165 $Y=0.258
C841	B#13	gnd!	1.10605e-18	$X=2.8065 $Y=0.235
C842	avC14#9	gnd!	1.26327e-19	$X=4.761 $Y=0.3475
C843	A#2	gnd!	4.41802e-18	$X=0.1615 $Y=0.05
C844	avC11	gnd!	6.21438e-19	$X=0.262 $Y=0.1825
C845	B#2	gnd!	3.23321e-18	$X=0.197 $Y=0.0175
C846	avC9#5	gnd!	7.46756e-19	$X=0.3365 $Y=0.0785
C847	avC11#13	gnd!	1.57681e-18	$X=0.255 $Y=0.071
C848	avC10#4	gnd!	8.97617e-19	$X=0.4985 $Y=0.1565
C849	avC9#9	gnd!	1.93607e-18	$X=0.2625 $Y=0.024
C850	avC10#11	gnd!	7.52551e-19	$X=0.6575 $Y=0.1535
C851	avC11#18	gnd!	7.35595e-19	$X=0.4675 $Y=0.1055
C852	avC12#4	gnd!	1.90535e-18	$X=0.795 $Y=0.1555
C853	B#6	gnd!	4.59866e-18	$X=0.268 $Y=0.0085
C854	avC12#11	gnd!	9.07595e-19	$X=1.018 $Y=0.152
C855	A#10	gnd!	2.03842e-18	$X=0.289 $Y=0.0395
C856	avC13#4	gnd!	2.44404e-18	$X=1.125 $Y=0.158
C857	avC9#14	gnd!	5.39287e-18	$X=0.4685 $Y=0.031
C858	avC13#11	gnd!	6.52925e-19	$X=1.3815 $Y=0.152
C859	A#15	gnd!	1.22426e-18	$X=0.786 $Y=0.12
C860	avC14#4	gnd!	2.13137e-18	$X=1.408 $Y=0.1545
C861	B#11	gnd!	5.64034e-18	$X=0.5455 $Y=0.016
C862	avC14#11	gnd!	1.66801e-19	$X=1.816 $Y=0.1575
C863	vdd!#1	gnd!	2.04115e-19	$X=0.1445 $Y=0.0025
C864	avC11#2	gnd!	3.47998e-19	$X=0.1985 $Y=0.1965
C865	vdd!#59	gnd!	9.95568e-19	$X=0.3145 $Y=0.1965
C866	avC9	gnd!	3.16636e-19	$X=0.354 $Y=0.1965
C867	vdd!#54	gnd!	4.98102e-19	$X=0.47 $Y=0.1985
C868	vdd!#50	gnd!	2.65905e-18	$X=0.553 $Y=0.1985
C869	vdd!#45	gnd!	7.17431e-19	$X=0.642 $Y=0.1965
C870	vdd!#36	gnd!	8.4811e-19	$X=0.882 $Y=0.1985
C871	vdd!#22	gnd!	1.31983e-18	$X=1.2105 $Y=0.1985
C872	vdd!#17	gnd!	4.52672e-19	$X=1.299 $Y=0.1965
C873	vdd!#12	gnd!	7.28757e-19	$X=1.4535 $Y=0.1985
C874	vdd!#9	gnd!	1.42054e-18	$X=1.537 $Y=0.1985
C875	avC11#5	gnd!	8.44857e-19	$X=0.383 $Y=0.4595
C876	avC9#4	gnd!	4.69642e-19	$X=1.2405 $Y=0.6375
C877	avC11#12	gnd!	7.29407e-19	$X=0.854 $Y=0.337
C878	avC10#5	gnd!	3.7454e-19	$X=1.32 $Y=0.355
C879	avC9#10	gnd!	1.00606e-18	$X=1.5615 $Y=0.4005
C880	vdd!#48	gnd!	8.4876e-19	$X=0.797 $Y=0.4305
C881	avC11#17	gnd!	8.46444e-19	$X=1.6635 $Y=0.3375
C882	avC12#5	gnd!	1.91674e-19	$X=2.367 $Y=0.3555
C883	B#7	gnd!	7.75253e-19	$X=1.7895 $Y=0.239
C884	vdd!#34	gnd!	7.52307e-19	$X=4.0275 $Y=1.432
C885	A#9	gnd!	7.04967e-19	$X=1.9005 $Y=0.2785
C886	avC13#5	gnd!	1.91674e-19	$X=3.396 $Y=0.355
C887	avC9#15	gnd!	8.93347e-19	$X=3.7185 $Y=0.4
C888	A#14	gnd!	1.19632e-19	$X=2.18 $Y=0.2015
C889	avC14#5	gnd!	1.97224e-19	$X=4.4275 $Y=0.355
C890	B#12	gnd!	2.85284e-18	$X=3.1565 $Y=0.235
C891	avC11#7	gnd!	7.356e-20	$X=0.308 $Y=0.171
C892	avC9#2	gnd!	3.36265e-20	$X=0.5595 $Y=0.3715
C893	avC10#7	gnd!	5.40196e-19	$X=0.851 $Y=0.148
C894	Y0#2	gnd!	4.10069e-18	$X=1.635 $Y=0.172
C895	Y0#5	gnd!	1.1188e-18	$X=1.1905 $Y=0.371
C896	avC12#7	gnd!	7.61016e-18	$X=1.568 $Y=0.148
C897	Y1#2	gnd!	4.31418e-18	$X=2.541 $Y=0.172
C898	Y1#5	gnd!	1.43111e-18	$X=1.8275 $Y=0.371
C899	avC13#7	gnd!	7.11033e-18	$X=2.283 $Y=0.148
C900	Y2#2	gnd!	8.04616e-18	$X=3.519 $Y=0.173
C901	Y2#5	gnd!	9.6379e-19	$X=2.4565 $Y=0.371
C902	avC14#7	gnd!	9.62981e-18	$X=2.9945 $Y=0.148
C903	Y3#2	gnd!	5.21659e-18	$X=4.25 $Y=0.171
*
*
.ENDS lab2_decoder
*
