*
*
*
*                       LINUX           Tue Feb 13 17:30:04 2024
*
*
*
*  PROGRAM  advgen
*
*  Name           : advgen - Quantus - (64-bit)
*  Version        : 20.1.2-p025
*  Build Date     : Thu Sep 3 13:54:09 PDT 2020
*
*  HSPICE LIBRARY
*
*!LENGTH_UNITS METERS
*
*
*

*
.SUBCKT lab1_opt_two_stage_inverter vdd! gnd!
*
*
*  caps2d version: 10
*
*
*       TRANSISTOR CARDS
*
*
MI2/avD1_1	avC3#39	avC2_3#4	gnd!#7	gnd!#1
+ nmos1v#20ivpcell#20gpdk090	L=1e-07	W=1.2e-07
+ AD=6.96e-14	AS=6.96e-14	PD=1.16e-06	PS=1.16e-06	simW=1.2e-07 fw=1.2e-07
MI3.4/avD1_1	avC3	avC3	gnd!#1	gnd!#1	nmos1v#20ivpcell#20gpdk090
+ L=1e-07	W=1.2e-07
+ AD=6.96e-14	AS=6.96e-14	PD=1.16e-06	PS=1.16e-06
+ M=4	simW=1.2e-07 fw=1.2e-07
MI2/avD7_1	avC3#54	avC2_3#3	vdd!#15	vdd!#10
+ pmos1v#20ivpcell#20gpdk090	L=1e-07	W=2.4e-07
+ AD=6.72e-14	AS=6.72e-14	PD=1.04e-06	PS=1.04e-06	simW=2.4e-07 fw=2.4e-07
MI3.4/avD7_1	avC3	avC3	vdd!	vdd!#5	pmos1v#20ivpcell#20gpdk090
+ L=1e-07	W=2.4e-07
+ AD=6.72e-14	AS=6.72e-14	PD=1.04e-06	PS=1.04e-06
+ M=4	simW=2.4e-07 fw=2.4e-07
*
*
*       RESISTOR AND CAP/DIODE CARDS
*
Rh1	gnd!#23	gnd!#22	    1.6152	$mt2
+ $X=4.1175 $Y=5.155
Rh2	gnd!#24	gnd!#23	    0.5559	$mt2
+ $X=3.845 $Y=4.245
Rh3	gnd!#24	gnd!#5	    2.1993	$mt2	$X=2.1275 $Y=3.295
Rh4	gnd!#23	gnd!#21	    0.9989	$mt2
+ $X=3.845 $Y=6.7375
Rh5	gnd!#24	gnd!#25	    1.9112	$mt2
+ $X=4.0425 $Y=2.4325
Rh9	vdd!	vdd!#14	    1.3196	$mt2	$X=0.335 $Y=6.695
Ri20	gnd!#2	gnd!#1	   15.5144	$mt1	$X=2.428 $Y=3.815
Ri21	gnd!#3	gnd!#2	    0.2369	$mt1	$X=1.67 $Y=3.815
Ri22	gnd!#3	gnd!#4	8.125e-02	$mt1	$X=1.35 $Y=3.815
Ri23	gnd!#4	gnd!#5	    0.6709	$mt1	$X=0.6405 $Y=3.815
Ri24	gnd!#5	gnd!	    0.2225	$mt1	$X=0.375 $Y=3.073
Ri25	gnd!#6	gnd!	    0.1637	$mt1	$X=0.375 $Y=2.688
Ri26	gnd!#8	gnd!#2	    0.2798	$mt1	$X=1.91 $Y=4.0975
Ri28	gnd!#1	gnd!#6	8.125e-02	$mt1	$X=0.3745 $Y=2.44
Ri33	gnd!#3	gnd!#1	   15.0000	$mt1	$X=1.43 $Y=3.815
Ri34	gnd!#8	gnd!#7	   15.0000	$mt1	$X=1.91 $Y=4.44
Ri42	gnd!#1	gnd!#21	    1.4821	$mt1	$X=3.695 $Y=8.33
Ri72	gnd!#27	gnd!#1	    0.2369	$mt1	$X=4.7125 $Y=6.025
Ri73	gnd!#27	gnd!#28	8.125e-02	$mt1
+ $X=4.3375 $Y=6.025
Ri76	gnd!#28	gnd!#22	    0.1362	$mt1
+ $X=4.445 $Y=5.805
Ri77	gnd!#27	gnd!#1	   15.0000	$mt1	$X=4.43 $Y=6.025
Ri81	gnd!#1	gnd!#34	8.125e-02	$mt1	$X=4.35 $Y=1.605
Ri82	gnd!#34	gnd!#25	    0.1018	$mt1
+ $X=4.148 $Y=1.605
Ri3	vdd!#6	vdd!	    0.2394	$mt1	$X=0.68 $Y=8.1975
Ri9	vdd!#6	vdd!#5	   15.0000	$mt1	$X=0.68 $Y=7.955
Ri10	vdd!	vdd!#5	   15.0000	$mt1	$X=0.68 $Y=9.355
Ri12	vdd!#11	vdd!#10	   15.4544	$mt1
+ $X=2.428 $Y=6.695
Ri13	vdd!#12	vdd!#11	    0.2394	$mt1
+ $X=1.7275 $Y=6.695
Ri14	vdd!#12	vdd!#13	    0.1125	$mt1
+ $X=1.3705 $Y=6.695
Ri15	vdd!#13	vdd!#14	    1.7825	$mt1
+ $X=0.8805 $Y=6.695
Ri16	vdd!#16	vdd!#11	    0.3923	$mt1	$X=1.97 $Y=6.3
Ri18	vdd!#12	vdd!#10	   15.0000	$mt1
+ $X=1.485 $Y=6.695
Ri19	vdd!#16	vdd!#15	   15.0000	$mt1
+ $X=1.97 $Y=5.845
Ri49	vdd!	vdd!#24	   15.1422	$mt1	$X=3.255 $Y=1.0525
Ri50	vdd!#25	vdd!	    0.2394	$mt1	$X=3.255 $Y=2.0625
Ri53	vdd!#25	vdd!#24	   15.0000	$mt1
+ $X=3.255 $Y=2.305
Ri56	vdd!#31	vdd!	    0.2394	$mt1	$X=4.7275 $Y=4.485
Ri60	vdd!	vdd!#28	   15.0000	$mt1	$X=5.885 $Y=4.485
Ri61	vdd!#31	vdd!#28	   15.0000	$mt1
+ $X=4.485 $Y=4.485
Ri63	vdd!	vdd!#36	   15.4544	$mt1	$X=5.428 $Y=8.905
Ri69	vdd!	vdd!#36	   15.0000	$mt1	$X=4.485 $Y=8.905
Ri106	avC3#38	avC3	    0.5556	$mt1	$X=3.135 $Y=5.155
Ri107	avC3#40	avC3#38	    0.4042	$mt1
+ $X=2.45 $Y=4.8175
Ri120	avC3#55	avC3#38	    0.3853	$mt1
+ $X=2.3925 $Y=5.665
Ri130	avC3#40	avC3#39	   15.0000	$mt1	$X=2.45 $Y=4.44
Ri134	avC3#55	avC3#54	   15.0000	$mt1
+ $X=2.39 $Y=5.845
Rj1	avC2_3#3	avC2_3	   49.7927	$poly	$X=2.18 $Y=5.4955
Rj2	avC2_3	avC2_3#4	   60.2927	$poly	$X=2.18 $Y=4.7725
*
*       CAPACITOR CARDS
*
*
C1	avC2_3#3	vdd!#10	3.8469e-17	$X=2.1795 $Y=5.8305
C2	gnd!#23	vdd!#10	4.97023e-18	$X=3.6585 $Y=5.6055
C3	vdd!#11	avC2_3#3	6.65077e-18	$X=2.1195 $Y=6.022
C4	gnd!#25	vdd!#24	9.00879e-18	$X=3.989 $Y=1.762
C5	vdd!#28	gnd!#22	8.76534e-18	$X=4.494 $Y=5.3985
C6	gnd!#23	avC3#38	4.88484e-18	$X=2.8455 $Y=5.245
C7	gnd!#2	avC2_3#4	7.22284e-18	$X=2.1055 $Y=4.3345
C8	avC3#38	vdd!#10	4.87775e-17	$X=2.4365 $Y=5.213
C9	avC3	vdd!	1.23268e-15	$X=3.774 $Y=5.8525
C10	avC3	vdd!#31	1.7641e-17	$X=4.2765 $Y=4.4845
C11	vdd!#16	avC3#55	1.39378e-17	$X=2.2205 $Y=5.849
C12	gnd!#21	vdd!	1.99586e-17	$X=3.8295 $Y=7.947
C13	vdd!	gnd!#25	5.10108e-17	$X=4.036 $Y=1.8
C14	avC2_3	gnd!#1	1.09048e-17	$X=2.122 $Y=5.151
C15	gnd!#22	vdd!	5.99136e-18	$X=4.4395 $Y=5.479
C16	avC3	avC2_3#3	8.35763e-19	$X=2.18 $Y=5.8195
C17	vdd!	gnd!#1	9.00574e-16	$X=3.772 $Y=6.0645
C18	vdd!#13	gnd!#1	2.17205e-17	$X=1.125 $Y=6.694
C19	avC2_3	vdd!#10	6.2894e-17	$X=2.124 $Y=5.207
C20	avC3	avC2_3#4	3.42684e-19	$X=2.18 $Y=4.4905
C21	avC3#55	avC2_3#3	1.31298e-17	$X=2.2935 $Y=5.7745
C22	avC2_3	avC3#38	4.72583e-17	$X=2.2725 $Y=5.1495
C23	gnd!#2	avC3#40	4.56365e-18	$X=2.283 $Y=4.3665
C24	gnd!#1	vdd!#36	3.76801e-18	$X=5.1645 $Y=8.749
C25	avC3#40	avC2_3	8.97468e-19	$X=2.3565 $Y=4.7315
C26	avC3#38	gnd!#1	1.18404e-17	$X=2.4495 $Y=5.1475
C27	vdd!	gnd!#34	1.42409e-17	$X=4.407 $Y=1.6135
C28	gnd!#23	avC3#40	6.66644e-18	$X=2.6135 $Y=4.6745
C29	avC3#55	vdd!#10	3.00846e-17	$X=2.415 $Y=5.738
C30	gnd!#5	avC3	3.14371e-17	$X=0.8045 $Y=3.3985
C31	avC3#40	gnd!#1	2.55158e-17	$X=2.4495 $Y=4.5655
C32	avC3#55	vdd!#11	4.74556e-18	$X=2.2825 $Y=5.97
C33	avC3	gnd!#28	2.57343e-17	$X=4.4435 $Y=5.954
C34	gnd!#21	avC3	6.72392e-17	$X=3.83 $Y=7.956
C35	vdd!#14	gnd!#1	1.37984e-16	$X=0.396 $Y=7.09
C36	avC3	gnd!#22	1.9425e-17	$X=4.4425 $Y=5.4735
C37	gnd!#24	vdd!	1.9306e-17	$X=2.9555 $Y=3.3515
C38	vdd!#16	avC2_3#3	1.35456e-17	$X=2.0915 $Y=5.898
C39	gnd!#1	avC3	2.17701e-15	$X=3.768 $Y=5.1225
C40	avC3	vdd!#5	1.8467e-16	$X=0.87 $Y=8.511
C41	vdd!#10	avC3	3.6008e-17	$X=2.2335 $Y=6.4795
C42	avC3	vdd!#24	1.98192e-16	$X=3.189 $Y=1.6995
C43	gnd!#23	avC3#55	6.8137e-18	$X=2.5925 $Y=5.696
C44	avC3	vdd!#28	1.98389e-16	$X=5.147 $Y=4.363
C45	avC3	vdd!#36	1.91562e-16	$X=5.1185 $Y=8.6305
C46	gnd!#8	avC2_3#4	1.08801e-17	$X=2.059 $Y=4.42
C47	avC2_3	vdd!#16	8.47963e-18	$X=2.0215 $Y=5.7145
C48	vdd!#11	avC3	1.35771e-17	$X=1.972 $Y=6.5305
C49	avC3#55	gnd!#1	4.18628e-18	$X=2.4195 $Y=5.724
C50	gnd!#2	avC2_3	2.84631e-18	$X=2.009 $Y=4.499
C51	avC3	gnd!#2	1.9805e-17	$X=1.9115 $Y=3.9215
C52	avC3#40	avC2_3#4	1.21807e-17	$X=2.303 $Y=4.5245
C53	avC2_3#4	gnd!#1	3.47328e-17	$X=2.1795 $Y=4.4905
C54	gnd!#8	avC2_3	7.94901e-18	$X=1.9715 $Y=4.573
C55	vdd!#31	gnd!#22	5.56013e-18	$X=4.292 $Y=4.574
C56	gnd!#8	avC3#40	1.15559e-17	$X=2.186 $Y=4.452
C57	gnd!#23	vdd!#31	4.8076e-18	$X=4.2535 $Y=4.539
C58	gnd!#24	vdd!#25	1.0126e-17	$X=3.2435 $Y=2.5385
C59	vdd!#25	avC3	6.38637e-18	$X=3.2545 $Y=2.5125
C60	gnd!#23	avC3	1.15774e-16	$X=3.844 $Y=5.489
C61	gnd!#24	avC3	1.39949e-16	$X=2.944 $Y=3.3075
C62	gnd!#23	vdd!#28	1.32376e-18	$X=3.993 $Y=5.363
C63	gnd!#23	vdd!	1.32787e-18	$X=3.8435 $Y=5.498
C64	gnd!#24	vdd!#24	1.9856e-18	$X=2.976 $Y=3.011
C65	gnd!#21	vdd!#10	2.12017e-18	$X=3.6845 $Y=7.839
C66	gnd!#24	avC3#40	2.81441e-18	$X=2.487 $Y=4.468
C67	gnd!#25	avC3	3.13749e-18	$X=4.037 $Y=1.7805
C68	gnd!#6	avC3	3.38484e-18	$X=0.3755 $Y=2.564
C69	avC3	gnd!#4	3.38666e-18	$X=1.1585 $Y=3.816
C70	avC3	gnd!	7.72272e-18	$X=0.376 $Y=2.881
C71	vdd!#28	gnd!	8.69019e-19	$X=0.4445 $Y=2.901
C72	vdd!#36	gnd!	5.06791e-19	$X=0.443 $Y=2.9635
C73	avC3#39	gnd!	6.86994e-20	$X=1.347 $Y=3.611
C74	vdd!#13	gnd!	3.24431e-20	$X=0.7045 $Y=4.5575
C75	vdd!#11	gnd!	3.24431e-20	$X=0.8095 $Y=3.8765
C76	vdd!#16	gnd!	8.48895e-19	$X=1.0195 $Y=4.145
C77	vdd!#25	gnd!	2.76144e-19	$X=2.318 $Y=2.6315
*
*
.ENDS lab1_opt_two_stage_inverter
*
