*
*
*
*                       LINUX           Thu Mar  7 21:24:56 2024
*
*
*
*  PROGRAM  advgen
*
*  Name           : advgen - Quantus - (64-bit)
*  Version        : 20.1.2-p025
*  Build Date     : Thu Sep 3 13:54:09 PDT 2020
*
*  HSPICE LIBRARY
*
*!LENGTH_UNITS METERS
*
*
*

*
.SUBCKT lab2_nand vdd! gnd! A B Y
*
*
*  caps2d version: 10
*
*
*       TRANSISTOR CARDS
*
*
MavD1_1	avC6	A#4	Y#1	gnd!#1	nmos1v#20ivpcell#20gpdk090	L=1e-07
+ W=2.4e-07
+ AD=3.84e-14	AS=6.72e-14	PD=5.6e-07	PS=1.04e-06
+ simW=2.4e-07 fw=2.4e-07
MavD1_2	gnd!#3	B#3	avC6	gnd!#1	nmos1v#20ivpcell#20gpdk090	L=1e-07
+ W=2.4e-07
+ AD=6.72e-14	AS=3.84e-14	PD=1.04e-06	PS=5.6e-07
+ simW=2.4e-07 fw=2.4e-07
MavD7_1	Y#4	A#2	vdd!#6	vdd!#1	pmos1v#20ivpcell#20gpdk090	L=1e-07
+ W=2.4e-07
+ AD=3.84e-14	AS=6.72e-14	PD=5.6e-07	PS=1.04e-06
+ simW=2.4e-07 fw=2.4e-07
MavD7_2	vdd!#3	B#4	Y#4	vdd!#1	pmos1v#20ivpcell#20gpdk090	L=1e-07
+ W=2.4e-07
+ AD=6.72e-14	AS=3.84e-14	PD=1.04e-06	PS=5.6e-07
+ simW=2.4e-07 fw=2.4e-07
*
*
*       RESISTOR AND CAP/DIODE CARDS
*
Ri1	A#1	A	   10.0253	$mt1	$X=0.582 $Y=1.445
Ri2	Y	Y#2	    0.9427	$mt1	$X=0.8605 $Y=1.095
Ri4	Y	Y#5	    0.3267	$mt1	$X=0.93 $Y=1.9695
Ri6	Y#1	Y#2	   15.0000	$mt1	$X=0.51 $Y=0.655
Ri7	Y#4	Y#5	   15.0000	$mt1	$X=0.93 $Y=2.245
Ri9	B	B#1	   10.0320	$mt1	$X=1.335 $Y=1.425
Ri10	vdd!#2	vdd!	    0.3113	$mt1	$X=0.9225 $Y=2.88
Ri11	vdd!	vdd!#4	    0.4100	$mt1	$X=1.35 $Y=2.5825
Ri13	vdd!	vdd!#7	    0.4100	$mt1	$X=0.51 $Y=2.5825
Ri15	vdd!	vdd!#1	   15.3112	$mt1	$X=0.9225 $Y=2.88
Ri16	vdd!#1	vdd!#2	   15.0000	$mt1	$X=1.545 $Y=2.88
Ri17	vdd!#3	vdd!#4	   15.0000	$mt1	$X=1.35 $Y=2.245
Ri18	vdd!#6	vdd!#7	   15.0000	$mt1	$X=0.51 $Y=2.245
Ri19	gnd!#2	gnd!	    0.3413	$mt1	$X=0.9225 $Y=0
Ri20	gnd!	gnd!#1	   15.3413	$mt1	$X=0.9225 $Y=0
Ri21	gnd!	gnd!#4	    0.4233	$mt1	$X=1.35 $Y=0.3075
Ri23	gnd!#1	gnd!#2	   15.0000	$mt1	$X=1.605 $Y=0
Ri24	gnd!#3	gnd!#4	   15.0000	$mt1	$X=1.35 $Y=0.655
Rj1	A#2	A#3	   66.8667	$poly	$X=0.72 $Y=1.8455
Rj2	A#3	A#1	    0.7993	$poly	$X=0.67 $Y=1.445
Rj3	A#3	A#4	   65.8667	$poly	$X=0.72 $Y=1.05
Rj4	B#1	B#2	    1.4243	$poly	$X=1.19 $Y=1.425
Rj5	B#2	B#3	   63.8667	$poly	$X=1.14 $Y=1.04
Rj6	B#2	B#4	   68.8667	$poly	$X=1.14 $Y=1.835
*
*       CAPACITOR CARDS
*
*
C1	A#3	gnd!#1	3.39222e-18	$X=0.7195 $Y=1.447
C2	vdd!	A#2	8.69637e-18	$X=0.7545 $Y=2.3095
C3	vdd!	B#4	8.69637e-18	$X=1.1035 $Y=2.3065
C4	Y	A#2	2.95597e-18	$X=0.7995 $Y=1.93
C5	A#3	vdd!#1	2.55988e-17	$X=0.724 $Y=1.477
C6	Y	B#4	3.1963e-18	$X=1.0585 $Y=1.924
C7	A	vdd!#1	2.10011e-17	$X=0.504 $Y=1.4435
C8	B#2	gnd!#1	4.74692e-18	$X=1.1395 $Y=1.4365
C9	Y	B#3	1.51585e-18	$X=1.06 $Y=1
C10	A#1	Y	3.07147e-17	$X=0.752 $Y=1.463
C11	B	vdd!#1	2.80457e-17	$X=1.3965 $Y=1.4475
C12	A#2	B#4	1.44412e-17	$X=0.9275 $Y=2.192
C13	Y	B#1	2.52058e-17	$X=1.1725 $Y=1.4425
C14	Y	gnd!#1	3.70128e-18	$X=0.9295 $Y=1.501
C15	Y	vdd!#1	2.03273e-17	$X=0.929 $Y=1.542
C16	B#2	vdd!#1	5.04927e-17	$X=1.132 $Y=1.4835
C17	A#4	B#3	1.41594e-17	$X=0.931 $Y=0.699
C18	A#2	vdd!#1	3.01568e-17	$X=0.723 $Y=2.2065
C19	B#4	vdd!#1	3.07932e-17	$X=1.135 $Y=2.2015
C20	A#4	gnd!#1	3.04489e-17	$X=0.7195 $Y=0.702
C21	B#3	gnd!#1	3.08031e-17	$X=1.1395 $Y=0.697
C22	A#1	vdd!#1	2.21325e-17	$X=0.627 $Y=1.4665
C23	Y	A#3	1.14037e-17	$X=0.806 $Y=1.4695
C24	B#1	vdd!#1	7.74348e-18	$X=1.2435 $Y=1.4375
C25	Y	B#2	1.64686e-17	$X=1.0295 $Y=1.4705
C26	A#3	B#2	1.84833e-17	$X=0.8835 $Y=1.443
C27	B#1	A#3	7.21986e-19	$X=1.0865 $Y=1.431
C28	A#1	B#2	9.65027e-19	$X=0.831 $Y=1.4355
C29	gnd!#4	B#3	9.68199e-18	$X=1.2545 $Y=0.6105
C30	avC6	B#3	1.05804e-17	$X=1.076 $Y=0.683
C31	vdd!#4	A#2	2.41284e-18	$X=1.072 $Y=2.283
C32	A	vdd!#7	5.51298e-18	$X=0.503 $Y=1.868
C33	gnd!#4	B#1	2.8141e-18	$X=1.286 $Y=1.0865
C34	Y#2	avC6	2.06457e-17	$X=0.678 $Y=0.766
C35	vdd!#7	A#2	9.95706e-18	$X=0.6015 $Y=2.283
C36	gnd!#4	B#2	2.30495e-18	$X=1.2835 $Y=0.82
C37	Y#5	B#4	7.7343e-18	$X=1.0135 $Y=2.176
C38	Y#5	vdd!#4	1.44346e-17	$X=1.124 $Y=2.253
C39	vdd!#7	A#1	2.04011e-18	$X=0.5525 $Y=1.9915
C40	Y#2	gnd!#1	2.75593e-17	$X=0.5095 $Y=0.8445
C41	avC6	gnd!#1	1.53185e-17	$X=0.927 $Y=0.6505
C42	Y#2	A#1	1.68949e-17	$X=0.5715 $Y=1.1765
C43	Y#2	A#3	7.17094e-18	$X=0.631 $Y=1.1935
C44	gnd!#4	A#4	2.17636e-18	$X=1.068 $Y=0.6125
C45	Y#2	A#4	1.24888e-17	$X=0.6375 $Y=0.757
C46	B	vdd!#4	5.56402e-18	$X=1.376 $Y=1.9075
C47	vdd!#4	B#4	9.95706e-18	$X=1.2575 $Y=2.2815
C48	avC6	Y	1.64741e-17	$X=0.928 $Y=1.1505
C49	B#1	vdd!#4	2.56932e-18	$X=1.2865 $Y=1.7835
C50	vdd!#7	B#4	2.41284e-18	$X=0.784 $Y=2.2815
C51	vdd!#7	Y#5	1.44346e-17	$X=0.7345 $Y=2.253
C52	Y#5	A#2	7.7343e-18	$X=0.8445 $Y=2.178
C53	vdd!#4	B#2	2.05068e-18	$X=1.2845 $Y=2.071
C54	gnd!#4	B	6.0941e-18	$X=1.376 $Y=0.969
C55	Y#2	vdd!#1	7.51697e-18	$X=0.522 $Y=0.9035
C56	Y#2	A	1.84204e-17	$X=0.5015 $Y=1.2415
C57	avC6	gnd!#4	1.92164e-17	$X=1.24 $Y=0.5685
C58	Y#5	vdd!	9.77208e-18	$X=0.9295 $Y=2.2525
C59	avC6	A#4	1.08738e-17	$X=0.7815 $Y=0.686
C60	Y#2	B#3	1.50201e-18	$X=0.8965 $Y=0.7535
C61	Y#5	vdd!#1	5.59403e-18	$X=0.929 $Y=2.1755
C62	A#3	B#4	2.3596e-19	$X=0.941 $Y=1.8385
C63	A	gnd!	1.27222e-18	$X=0.525 $Y=1.3055
C64	B	gnd!	1.43293e-18	$X=1.3445 $Y=1.2855
C65	avC6	gnd!	1.19831e-17	$X=0.9 $Y=0.511
C66	A#4	gnd!	7.31883e-18	$X=0.73 $Y=0.6265
C67	B#3	gnd!	8.43083e-18	$X=1.1015 $Y=0.623
C68	B#1	gnd!	1.49988e-18	$X=1.22 $Y=1.34
C69	Y#2	gnd!	1.00109e-17	$X=0.561 $Y=0.709
C70	B#2	gnd!	2.04578e-19	$X=1.077 $Y=1.175
*
*
.ENDS lab2_nand
*
