*
*
*
*                       LINUX           Tue Feb 13 22:01:09 2024
*
*
*
*  PROGRAM  advgen
*
*  Name           : advgen - Quantus - (64-bit)
*  Version        : 20.1.2-p025
*  Build Date     : Thu Sep 3 13:54:09 PDT 2020
*
*  HSPICE LIBRARY
*
*!LENGTH_UNITS METERS
*
*
*

*
.SUBCKT lab1inv_opt_inv_chain_wide vdd! gnd! A Y
*
*
*  caps2d version: 10
*
*
*       TRANSISTOR CARDS
*
*
MI0/avD1_1	avC5#7	A#3	gnd!#14	gnd!#6
+ nmos1v#20ivpcell#20gpdk090	L=1e-07	W=1.2e-07
+ AD=6.96e-14	AS=6.96e-14	PD=1.16e-06	PS=1.16e-06	simW=1.2e-07 fw=1.2e-07
MI1/avD1_1	gnd!#1	avC5#10	Y	gnd!#6
+ nmos1v#20ivpcell#20gpdk090	L=1e-07	W=1.2e-07
+ AD=4.08e-14	AS=5.52e-14	PD=6.8e-07	PS=9.2e-07	M=4	simW=1.2e-07 fw=1.2e-07
MI0/avD7_1	avC5#3	A#2	vdd!#19	vdd!#7
+ pmos1v#20ivpcell#20gpdk090	L=1e-07	W=2.4e-07
+ AD=6.72e-14	AS=6.72e-14	PD=1.04e-06	PS=1.04e-06	simW=2.4e-07 fw=2.4e-07
MI1/avD7_1	Y	avC5#10	vdd!#2	vdd!#1
+ pmos1v#20ivpcell#20gpdk090	L=1e-07	W=2.4e-07
+ AD=3.84e-14	AS=5.28e-14	PD=5.6e-07	PS=8e-07	M=4	simW=2.4e-07 fw=2.4e-07
*
*
*       RESISTOR AND CAP/DIODE CARDS
*
Ri31	gnd!#7	gnd!#1	    0.3047	$mt1	$X=81.69 $Y=0
Ri32	gnd!#7	gnd!#8	7.750e-02	$mt1	$X=81.3 $Y=0
Ri33	gnd!#9	gnd!#8	   40.3275	$mt1	$X=40.898 $Y=0
Ri34	gnd!#10	gnd!#9	    0.1319	$mt1	$X=0.4355 $Y=0
Ri35	gnd!#10	gnd!	    0.1057	$mt1	$X=0.1925 $Y=0
Ri36	gnd!#1	gnd!#6	   15.3054	$mt1	$X=83.3625 $Y=0
Ri39	gnd!#15	gnd!#10	    0.2798	$mt1
+ $X=0.3 $Y=0.2825
Ri42	gnd!#7	gnd!#6	   15.0000	$mt1	$X=81.38 $Y=0
Ri43	gnd!#9	gnd!#6	   15.0000	$mt1	$X=0.57 $Y=0
Ri45	gnd!#15	gnd!#14	   15.0000	$mt1	$X=0.3 $Y=0.625
Ri1	A#1	A	   10.0217	$mt1	$X=0.455 $Y=1.35
Ri46	vdd!#2	vdd!#1	   15.1283	$mt1	$X=83.503 $Y=2.88
Ri49	vdd!#5	vdd!#2	    0.1183	$mt1	$X=81.5675 $Y=2.88
Ri50	vdd!#5	vdd!#6	    0.1100	$mt1	$X=81.3355 $Y=2.88
Ri51	vdd!#8	vdd!#6	   40.3325	$mt1	$X=40.893 $Y=2.88
Ri52	vdd!#9	vdd!#8	9.694e-02	$mt1	$X=0.4605 $Y=2.88
Ri53	vdd!#9	vdd!	    0.1394	$mt1	$X=0.215 $Y=2.88
Ri60	vdd!#20	vdd!#9	    0.3923	$mt1	$X=0.36 $Y=2.485
Ri62	vdd!#5	vdd!#1	   15.0000	$mt1	$X=81.445 $Y=2.88
Ri63	vdd!#8	vdd!#7	   15.0000	$mt1	$X=0.56 $Y=2.88
Ri67	vdd!#20	vdd!#19	   15.0000	$mt1	$X=0.36 $Y=2.03
Ri2	avC5#2	avC5	   44.3319	$mt1	$X=41.04 $Y=1.4675
Ri3	avC5#4	avC5#2	    0.3135	$mt1	$X=0.7825 $Y=1.85
Ri5	avC5	avC5#6	   10.0337	$mt1	$X=81.325 $Y=1.555
Ri6	avC5#8	avC5#2	    0.4782	$mt1	$X=0.84 $Y=1.075
Ri8	avC5#4	avC5#3	   15.0000	$mt1	$X=0.78 $Y=2.03
Ri9	avC5#8	avC5#7	   15.0000	$mt1	$X=0.84 $Y=0.625
Rj1	A#2	A#1	   49.7927	$poly	$X=0.57 $Y=1.6805
Rj2	A#1	A#3	   60.2927	$poly	$X=0.57 $Y=0.9575
Rj10	avC5#10	avC5#6	   22.9220	$poly	$X=81.59 $Y=1.55
*
*       CAPACITOR CARDS
*
*
C1	gnd!#6	A	2.47783e-18	$X=0.4545 $Y=1.3495
C2	A	vdd!#7	2.12805e-17	$X=0.5165 $Y=1.3605
C3	avC5#2	gnd!#6	2.8263e-15	$X=20.9905 $Y=1.467
C4	A#2	vdd!#7	3.80349e-17	$X=0.6195 $Y=2.009
C5	avC5#2	vdd!#7	3.62133e-17	$X=15.3765 $Y=1.915
C6	A	avC5#2	2.91728e-17	$X=0.7255 $Y=1.351
C7	A#3	gnd!#6	3.50523e-17	$X=0.5695 $Y=0.6755
C8	A#1	gnd!#6	1.12066e-17	$X=0.5695 $Y=1.3235
C9	A#1	vdd!#7	3.94077e-17	$X=0.643 $Y=1.337
C10	avC5#2	A#2	1.46147e-18	$X=0.791 $Y=1.999
C11	avC5#6	vdd!#1	2.52516e-17	$X=81.397 $Y=1.5235
C12	vdd!#7	gnd!#6	2.85383e-15	$X=7.299 $Y=2.5635
C13	vdd!#6	gnd!#6	2.88871e-15	$X=61.108 $Y=2.8785
C14	avC5	gnd!#6	2.83446e-15	$X=61.101 $Y=1.467
C15	avC5	vdd!#1	2.75589e-17	$X=72.476 $Y=2.182
C16	avC5#2	A#1	1.54664e-17	$X=0.8925 $Y=1.3255
C17	gnd!#1	avC5#10	6.01575e-17	$X=82.5215 $Y=0.618
C18	avC5#10	gnd!#6	1.26561e-16	$X=82.4495 $Y=1.4355
C19	vdd!#20	A#1	1.91245e-18	$X=0.4615 $Y=1.7685
C20	vdd!#20	avC5#4	1.39378e-17	$X=0.611 $Y=2.04
C21	gnd!#15	avC5#8	1.15559e-17	$X=0.5575 $Y=0.6465
C22	vdd!#2	avC5#10	9.64008e-17	$X=82.509 $Y=2.031
C23	gnd!#15	A	7.94901e-18	$X=0.3735 $Y=0.915
C24	Y	avC5#10	2.05619e-16	$X=82.539 $Y=1.3105
C25	avC5#10	vdd!#1	2.32521e-16	$X=82.5185 $Y=2.236
C26	Y	avC5#6	4.88719e-18	$X=81.3945 $Y=1.5065
C27	Y	gnd!#6	1.09347e-16	$X=82.5885 $Y=1.192
C28	Y	vdd!#1	6.64459e-17	$X=82.5775 $Y=2.1135
C29	avC5#8	gnd!#6	3.61302e-17	$X=0.8395 $Y=0.787
C30	A	vdd!#20	6.56717e-18	$X=0.41 $Y=1.7425
C31	vdd!#20	A#2	1.35456e-17	$X=0.4815 $Y=2.083
C32	avC5#4	A#2	1.16343e-17	$X=0.6785 $Y=1.97
C33	avC5#4	vdd!#7	3.10209e-17	$X=0.828 $Y=1.941
C34	Y	vdd!#2	1.08861e-16	$X=82.5545 $Y=1.9395
C35	gnd!#1	Y	8.52659e-17	$X=82.549 $Y=0.577
C36	avC5#8	A#3	1.21807e-17	$X=0.684 $Y=0.7225
C37	Y	avC5	2.14729e-17	$X=71.0445 $Y=1.3395
C38	gnd!#15	A#3	1.08801e-17	$X=0.449 $Y=0.605
C39	avC5#8	A#1	3.14114e-18	$X=0.7165 $Y=1.0305
C40	A	gnd!	7.66936e-20	$X=0.196 $Y=0.3775
C41	A#1	gnd!	4.80076e-20	$X=0.211 $Y=0.323
C42	avC5#6	gnd!	5.68433e-19	$X=28.611 $Y=0.529
C43	vdd!#6	gnd!	3.92271e-18	$X=0.3845 $Y=0.013
C44	avC5	gnd!	3.35428e-18	$X=0.4105 $Y=0.007
C45	vdd!#20	gnd!	8.48895e-19	$X=0.1625 $Y=0.5565
*
*
.ENDS lab1inv_opt_inv_chain_wide
*
