*
*
*
*                       LINUX           Tue Mar 26 21:03:39 2024
*
*
*
*  PROGRAM  advgen
*
*  Name           : advgen - Quantus - (64-bit)
*  Version        : 20.1.2-p025
*  Build Date     : Thu Sep 3 13:54:09 PDT 2020
*
*  HSPICE LIBRARY
*
*!LENGTH_UNITS METERS
*
*
*

*
.SUBCKT lab2_nora vdd! gnd! A B phi phi_bar Y
*
*
*  caps2d version: 10
*
*
*       TRANSISTOR CARDS
*
*
MI13/avD1_1	gnd!#13	phi_bar#2	avC10	gnd!#8
+ nmos1v#20ivpcell#20gpdk090	L=1e-07	W=4.8e-07
+ AD=1.344e-13	AS=1.344e-13	PD=1.52e-06	PS=1.52e-06	simW=4.8e-07 fw=4.8e-07
MI11/avD1_1	avC9#6	B#2	I11/avC6	gnd!#8
+ nmos1v#20ivpcell#20gpdk090	L=1e-07	W=2.4e-07
+ AD=3.84e-14	AS=4.56e-14	PD=5.6e-07	PS=6.8e-07	M=4	simW=2.4e-07 fw=2.4e-07
MI12/avD1_5	gnd!#1	phi#25	I12/avC6	gnd!#8
+ nmos1v#20ivpcell#20gpdk090	L=1e-07	W=2.4e-07
+ AD=3.84e-14	AS=4.56e-14	PD=5.6e-07	PS=6.8e-07	M=4	simW=2.4e-07 fw=2.4e-07
MI12/avD1_1	Y#1	avC10#12	I12/avC6	gnd!#8
+ nmos1v#20ivpcell#20gpdk090	L=1e-07	W=2.4e-07
+ AD=3.84e-14	AS=4.56e-14	PD=5.6e-07	PS=6.8e-07	M=4	simW=2.4e-07 fw=2.4e-07
MI10/avD1_1	avC8#5	A#2	I10/avC6	gnd!#8
+ nmos1v#20ivpcell#20gpdk090	L=1e-07	W=2.4e-07
+ AD=3.84e-14	AS=4.56e-14	PD=5.6e-07	PS=6.8e-07	M=4	simW=2.4e-07 fw=2.4e-07
MI10/avD1_5	gnd!#20	phi#3	I10/avC6	gnd!#8
+ nmos1v#20ivpcell#20gpdk090	L=1e-07	W=2.4e-07
+ AD=3.84e-14	AS=4.56e-14	PD=5.6e-07	PS=6.8e-07	M=4	simW=2.4e-07 fw=2.4e-07
MI11/avD1_5	gnd!#16	phi#14	I11/avC6	gnd!#8
+ nmos1v#20ivpcell#20gpdk090	L=1e-07	W=2.4e-07
+ AD=3.84e-14	AS=4.56e-14	PD=5.6e-07	PS=6.8e-07	M=4	simW=2.4e-07 fw=2.4e-07
MI13/avD7_1	I13/avC7#4	phi_bar#4	vdd!#7	vdd!#1
+ pmos1v#20ivpcell#20gpdk090	L=1e-07	W=9.6e-07
+ AD=1.536e-13	AS=2.688e-13	PD=1.28e-06	PS=2.48e-06	simW=9.6e-07 fw=9.6e-07
MI13/avD7_2	avC10#6	avC8#15	I13/avC7#4	vdd!#1
+ pmos1v#20ivpcell#20gpdk090	L=1e-07	W=9.6e-07
+ AD=1.536e-13	AS=1.536e-13	PD=1.28e-06	PS=1.28e-06	simW=9.6e-07 fw=9.6e-07
MI13/avD7_3	I13/avC7	avC9#16	avC10#6	vdd!#1
+ pmos1v#20ivpcell#20gpdk090	L=1e-07	W=9.6e-07
+ AD=2.688e-13	AS=1.536e-13	PD=2.48e-06	PS=1.28e-06	simW=9.6e-07 fw=9.6e-07
MI12/avD7_1	Y#5	phi#30	vdd!#3	vdd!#1	pmos1v#20ivpcell#20gpdk090
+ L=1e-07	W=4.8e-07
+ AD=1.344e-13	AS=1.344e-13	PD=1.52e-06	PS=1.52e-06
+ simW=4.8e-07 fw=4.8e-07
MI11/avD7_1	avC9	phi#19	vdd!#11	vdd!#1
+ pmos1v#20ivpcell#20gpdk090	L=1e-07	W=4.8e-07
+ AD=1.344e-13	AS=1.344e-13	PD=1.52e-06	PS=1.52e-06	simW=4.8e-07 fw=4.8e-07
MI10/avD7_1	avC8	phi#8	vdd!#15	vdd!#1
+ pmos1v#20ivpcell#20gpdk090	L=1e-07	W=4.8e-07
+ AD=1.344e-13	AS=1.344e-13	PD=1.52e-06	PS=1.52e-06	simW=4.8e-07 fw=4.8e-07
*
*
*       RESISTOR AND CAP/DIODE CARDS
*
Rh4	phi#24	phi#12	    1.4570	$mt2	$X=9.7465 $Y=2.4175
Rh5	phi#12	phi#2	    0.8830	$mt2	$X=4.542 $Y=2.4175
Rh1	avC8#12	avC8#5	    3.3485	$mt2	$X=5.7795 $Y=1.01
Rh2	avC9#15	avC9#5	    2.4404	$mt2	$X=8.2005 $Y=1.4875
Rh3	avC10#11	avC10#8	    1.6904	$mt2
+ $X=10.318 $Y=1.955
Ri145	vdd!#2	vdd!	    1.0822	$mt1	$X=12.3205 $Y=2.88
Ri146	vdd!	vdd!#4	    0.5000	$mt1	$X=11.915 $Y=2.575
Ri148	vdd!	vdd!#6	    1.0102	$mt1	$X=12.3205 $Y=2.88
Ri149	vdd!#6	vdd!	    1.5738	$mt1	$X=9.6415 $Y=2.88
Ri150	vdd!	vdd!#8	    0.6500	$mt1	$X=8.875 $Y=2.5825
Ri152	vdd!#10	vdd!	    0.4538	$mt1	$X=7.1525 $Y=2.88
Ri153	vdd!	vdd!#12	    0.5000	$mt1	$X=5.49 $Y=2.575
Ri155	vdd!#14	vdd!	    0.8303	$mt1	$X=2.2245 $Y=2.88
Ri156	vdd!	vdd!#16	    0.5000	$mt1	$X=1.315 $Y=2.575
Ri158	vdd!#1	vdd!#2	   15.0000	$mt1	$X=14.485 $Y=2.88
Ri159	vdd!#3	vdd!#4	   15.0000	$mt1	$X=11.915 $Y=2.11
Ri160	vdd!#1	vdd!#6	   15.0000	$mt1	$X=10.3 $Y=2.88
Ri161	vdd!#7	vdd!#8	    5.0000	$mt1	$X=8.875 $Y=1.885
Ri162	vdd!#1	vdd!#10	   15.0000	$mt1	$X=8.06 $Y=2.88
Ri163	vdd!#11	vdd!#12	   15.0000	$mt1	$X=5.49 $Y=2.11
Ri164	vdd!#1	vdd!#14	   15.0000	$mt1	$X=3.885 $Y=2.88
Ri165	vdd!#15	vdd!#16	   15.0000	$mt1
+ $X=1.315 $Y=2.11
Ri62	phi_bar	phi_bar#1	3.175e-02	$mt1
+ $X=8.525 $Y=1.062
Ri73	I13/avC7#2	I13/avC7#5	    1.4294	$mt1
+ $X=9.7155 $Y=2.59
Ri75	I13/avC7	I13/avC7#2	    5.0000	$mt1
+ $X=10.135 $Y=1.885
Ri76	I13/avC7#4	I13/avC7#5	    5.0000	$mt1
+ $X=9.295 $Y=1.885
Ri112	gnd!#1	gnd!	    1.2026	$mt1	$X=14.2 $Y=1.09
Ri115	gnd!#9	gnd!	    0.1173	$mt1	$X=12.3205 $Y=0
Ri116	gnd!#10	gnd!	    0.9803	$mt1	$X=12.3205 $Y=0
Ri117	gnd!#10	gnd!	    1.6037	$mt1	$X=9.6265 $Y=0
Ri118	gnd!#11	gnd!	    0.5113	$mt1	$X=7.1525 $Y=0
Ri119	gnd!#11	gnd!	    1.9527	$mt1	$X=4.713 $Y=0
Ri120	gnd!#12	gnd!	    0.1348	$mt1	$X=2.2245 $Y=0
Ri121	gnd!#12	gnd!	    0.9175	$mt1	$X=1.067 $Y=0
Ri122	gnd!#14	gnd!	    0.3533	$mt1	$X=9.335 $Y=0.195
Ri124	gnd!#16	gnd!	    1.1950	$mt1	$X=8.165 $Y=0.555
Ri127	gnd!#20	gnd!	    1.1950	$mt1	$X=3.99 $Y=0.555
Ri136	gnd!#9	gnd!#8	   15.0000	$mt1	$X=12.555 $Y=0
Ri137	gnd!#10	gnd!#8	   15.0000	$mt1	$X=10.36 $Y=0
Ri138	gnd!#11	gnd!#8	   15.0000	$mt1	$X=6.13 $Y=0
Ri139	gnd!#12	gnd!#8	   15.0000	$mt1	$X=1.955 $Y=0
Ri140	gnd!#14	gnd!#13	   15.0000	$mt1
+ $X=9.335 $Y=0.55
Ri1	A#1	A	   10.0509	$mt1	$X=0.48 $Y=1.4125
Ri31	B#1	B	   10.0519	$mt1	$X=4.655 $Y=1.415
Ri12	phi#1	phi	   10.0386	$mt1	$X=2.4725 $Y=1.565
Ri13	phi#2	phi	    1.8102	$mt1	$X=2.6075 $Y=2.0325
Ri43	phi#11	phi#12	    1.7347	$mt1	$X=6.5175 $Y=2.06
Ri44	phi#11	phi#13	   10.0395	$mt1	$X=6.6475 $Y=1.576
Ri92	phi#22	phi#24	    1.8006	$mt1	$X=12.9425 $Y=2.0575
Ri81	Y#1	Y	    0.3980	$mt1	$X=12.13 $Y=1.293
Ri84	Y#6	Y	    0.3633	$mt1	$X=12.335 $Y=1.747
Ri89	Y#6	Y#5	   15.0000	$mt1	$X=12.335 $Y=2.11
Ri3	avC8#2	avC8#4	    0.3667	$mt1	$X=1.735 $Y=1.7455
Ri4	avC8#4	avC8#5	    0.4156	$mt1	$X=1.53 $Y=1.293
Ri9	avC8#2	avC8	   15.0000	$mt1	$X=1.735 $Y=2.11
Ri70	avC8#13	avC8#12	    1.6320	$mt1
+ $X=9.9775 $Y=0.806
Ri71	avC8#13	avC8#14	   10.0008	$mt1
+ $X=9.7775 $Y=0.4525
Ri33	avC9#2	avC9#4	    0.3634	$mt1	$X=5.91 $Y=1.7455
Ri34	avC9#4	avC9#5	4.148e-02	$mt1	$X=5.91 $Y=1.52
Ri35	avC9#6	avC9#5	    0.2831	$mt1	$X=5.8 $Y=1.38
Ri40	avC9#2	avC9	   15.0000	$mt1	$X=5.91 $Y=2.11
Ri77	avC9#14	avC9#13	1.818e-03	$mt1
+ $X=10.325 $Y=0.4525
Ri78	avC9#14	avC9#15	    1.8765	$mt1
+ $X=10.4925 $Y=1.0325
Ri64	avC10#4	avC10#2	    0.9247	$mt1
+ $X=9.1445 $Y=1.19
Ri65	avC10#5	avC10#4	    0.4633	$mt1
+ $X=9.715 $Y=1.3275
Ri67	avC10#5	avC10#8	3.467e-02	$mt1
+ $X=9.715 $Y=1.885
Ri68	avC10#2	avC10	   15.0000	$mt1	$X=8.915 $Y=0.55
Ri69	avC10#5	avC10#6	    5.0000	$mt1
+ $X=9.715 $Y=1.885
Ri79	avC10#10	avC10#9	5.299e-02	$mt1
+ $X=11.08 $Y=1.4475
Ri80	avC10#10	avC10#11	    1.6043	$mt1
+ $X=10.975 $Y=1.7725
Rj29	phi_bar#2	phi_bar#3	   32.6042	$poly
+ $X=9.125 $Y=0.932
Rj30	phi_bar#3	phi_bar#1	   54.5988	$poly
+ $X=8.84 $Y=1.125
Rj31	phi_bar#3	phi_bar#4	   27.9353	$poly
+ $X=9.085 $Y=1.29
Rj4	A#2	A#1	   42.5435	$poly	$X=0.48 $Y=1.0195
Rj18	B#2	B#1	   42.5435	$poly	$X=4.655 $Y=1.0195
Rj10	phi#3	phi#7	   55.4091	$poly	$X=2.16 $Y=1.092
Rj11	phi#7	phi#8	  104.2045	$poly	$X=1.8425 $Y=1.415
Rj14	phi#7	phi#1	   25.4099	$poly	$X=2.285 $Y=1.415
Rj24	phi#14	phi#18	   55.4091	$poly	$X=6.335 $Y=1.092
Rj25	phi#18	phi#19	  104.2045	$poly	$X=6.0175 $Y=1.415
Rj28	phi#18	phi#13	   25.4099	$poly	$X=6.46 $Y=1.415
Rj43	phi#25	phi#29	   55.4091	$poly	$X=12.76 $Y=1.092
Rj44	phi#29	phi#30	  104.2045	$poly	$X=12.4425 $Y=1.415
Rj47	phi#29	phi#22	   35.4099	$poly	$X=12.885 $Y=1.415
Rj32	avC8#15	avC8#14	   92.4673	$poly
+ $X=9.632 $Y=1.045
Rj33	avC9#16	avC9#13	  114.9673	$poly
+ $X=10.27 $Y=1.1005
Rj37	avC10#12	avC10#9	   52.5435	$poly
+ $X=11.08 $Y=1.0195
*
*       CAPACITOR CARDS
*
*
C1	A	vdd!	6.95187e-18	$X=0.6075 $Y=1.5765
C2	B	vdd!	3.2606e-18	$X=4.711 $Y=1.5875
C3	phi	vdd!	4.30537e-18	$X=2.728 $Y=1.821
C4	vdd!	phi#8	8.11827e-18	$X=1.67 $Y=1.968
C5	vdd!	phi#19	6.0937e-18	$X=5.749 $Y=1.968
C6	vdd!	phi_bar#4	6.32377e-18	$X=9.0555 $Y=1.9395
C7	phi_bar#2	gnd!#8	2.64972e-17	$X=9.124 $Y=0.53
C8	vdd!	avC8#15	4.78792e-18	$X=9.455 $Y=1.8025
C9	vdd!	avC9#16	4.67496e-18	$X=10.023 $Y=1.279
C10	vdd!	phi#30	6.0937e-18	$X=12.0265 $Y=1.968
C11	A	phi#8	3.1022e-18	$X=0.909 $Y=1.7135
C12	avC10#5	phi_bar#4	3.16674e-18	$X=9.391 $Y=1.882
C13	phi#2	vdd!	7.59878e-17	$X=3.572 $Y=2.407
C14	avC9#5	vdd!	1.01619e-17	$X=6.6025 $Y=1.6465
C15	phi#12	vdd!	1.36878e-16	$X=7.0565 $Y=2.4715
C16	avC9#15	vdd!	6.46073e-18	$X=9.6905 $Y=1.5945
C17	avC10#11	vdd!	5.64504e-18	$X=10.7005 $Y=1.9815
C18	phi#24	vdd!	8.36328e-17	$X=11.506 $Y=2.438
C19	B	phi#19	1.58236e-18	$X=5.051 $Y=1.71
C20	avC10#10	vdd!#1	1.27485e-17	$X=10.9675 $Y=1.613
C21	avC10#4	avC8#14	4.39413e-18	$X=9.5525 $Y=0.9875
C22	Y	phi#30	1.51605e-17	$X=12.1895 $Y=1.601
C23	avC10#10	vdd!	1.59437e-18	$X=10.9165 $Y=1.633
C24	avC10#4	avC8#15	9.66009e-18	$X=9.435 $Y=1.388
C25	avC10#5	avC8#15	1.41197e-17	$X=9.62 $Y=1.811
C26	A	vdd!#1	3.00802e-17	$X=0.516 $Y=1.559
C27	phi#2	B	1.87346e-18	$X=4.496 $Y=1.653
C28	B	avC9#5	3.86608e-18	$X=4.8295 $Y=1.561
C29	phi#12	B	5.57595e-18	$X=4.7695 $Y=1.6065
C30	B	vdd!#1	2.26163e-17	$X=4.6775 $Y=1.572
C31	avC9#14	avC8#14	1.73322e-18	$X=9.9615 $Y=0.729
C32	avC8#4	vdd!#1	1.22619e-17	$X=1.6515 $Y=1.383
C33	avC8#14	avC9#13	1.27899e-17	$X=10.0025 $Y=0.763
C34	phi_bar#4	avC8#15	1.60256e-17	$X=9.267 $Y=1.8525
C35	avC10#4	avC9#16	5.516e-18	$X=9.6235 $Y=1.2005
C36	phi	vdd!#1	3.30794e-17	$X=2.634 $Y=1.7995
C37	avC10#5	avC9#16	1.57097e-17	$X=9.877 $Y=1.581
C38	avC8#13	avC9#13	4.68823e-18	$X=10.177 $Y=0.686
C39	A	avC8#4	3.76586e-18	$X=1.078 $Y=1.465
C40	avC8#15	avC9#16	2.05139e-17	$X=9.7865 $Y=1.5095
C41	avC8#12	phi_bar	1.05417e-17	$X=8.547 $Y=0.9515
C42	avC10#9	Y	3.47705e-18	$X=11.8285 $Y=1.343
C43	phi_bar	gnd!#8	8.19666e-18	$X=8.5365 $Y=0.9505
C44	B#1	avC9#5	7.68623e-18	$X=4.9735 $Y=1.318
C45	phi_bar#3	avC8#14	4.00719e-19	$X=9.3115 $Y=1.02
C46	avC9#5	phi#11	1.32167e-17	$X=6.5055 $Y=1.7605
C47	phi#24	Y	2.76463e-18	$X=12.2265 $Y=1.455
C48	avC9#5	phi#13	2.40663e-17	$X=6.6115 $Y=1.4635
C49	Y	vdd!#1	7.82561e-18	$X=12.223 $Y=1.383
C50	phi#18	gnd!#8	2.54902e-18	$X=6.05 $Y=1.4145
C51	A#1	avC8#4	3.72215e-18	$X=1.3355 $Y=1.3645
C52	phi_bar#3	gnd!#8	8.50948e-18	$X=9.054 $Y=1.1815
C53	avC8#13	phi_bar#2	3.33766e-18	$X=9.3705 $Y=0.526
C54	avC8#4	phi	4.72645e-18	$X=2.0115 $Y=1.5415
C55	avC10#10	phi#30	3.60096e-18	$X=11.488 $Y=1.76
C56	avC8#12	phi#13	5.5346e-18	$X=6.9115 $Y=1.406
C57	A#1	gnd!#8	7.0937e-18	$X=0.484 $Y=1.3215
C58	avC8#4	phi#1	7.17035e-18	$X=1.925 $Y=1.4065
C59	A#1	vdd!#1	4.63811e-17	$X=0.549 $Y=1.332
C60	avC8#12	phi_bar#1	8.59946e-18	$X=8.5715 $Y=1.096
C61	phi#18	vdd!#1	3.95917e-17	$X=6.059 $Y=1.4185
C62	A#1	phi#8	1.97468e-18	$X=1.158 $Y=1.7265
C63	avC9#15	phi_bar#1	7.86364e-18	$X=8.763 $Y=1.159
C64	phi#1	vdd!#1	3.87675e-17	$X=2.508 $Y=1.464
C65	B#1	gnd!#8	9.08883e-18	$X=4.6545 $Y=1.283
C66	phi_bar#3	vdd!#1	8.32918e-18	$X=9.054 $Y=1.1845
C67	B#1	phi#19	1.98392e-18	$X=5.2405 $Y=1.655
C68	avC8#12	avC9#13	6.27486e-18	$X=10.1705 $Y=0.7805
C69	B#1	vdd!#1	4.91653e-17	$X=4.6775 $Y=1.2905
C70	avC8#12	avC10#9	2.45327e-18	$X=10.836 $Y=1.244
C71	phi#13	vdd!#1	3.65797e-17	$X=6.6625 $Y=1.4665
C72	phi_bar#1	gnd!#8	2.28762e-17	$X=8.53 $Y=1.109
C73	avC8#4	phi#7	1.12609e-17	$X=1.7435 $Y=1.3955
C74	avC9#15	avC10#9	1.6641e-17	$X=10.889 $Y=1.299
C75	phi_bar#1	vdd!#1	3.14525e-17	$X=8.5325 $Y=1.1165
C76	avC9#5	phi#19	1.81223e-17	$X=5.806 $Y=1.878
C77	avC8#14	gnd!#8	3.23385e-17	$X=9.724 $Y=0.762
C78	avC9#5	phi#12	4.30251e-17	$X=6.561 $Y=1.767
C79	phi#8	vdd!#1	5.33267e-17	$X=1.5555 $Y=1.95
C80	avC9#13	gnd!#8	3.40248e-17	$X=10.269 $Y=0.7645
C81	avC9#16	avC10#9	3.71275e-18	$X=10.6365 $Y=1.2525
C82	avC10#4	phi_bar#3	1.85752e-18	$X=9.196 $Y=1.1845
C83	avC10#10	Y	3.76586e-18	$X=11.675 $Y=1.481
C84	avC9#15	phi_bar#4	2.15662e-18	$X=9.2105 $Y=1.843
C85	phi#19	vdd!#1	5.00719e-17	$X=5.713 $Y=1.95
C86	avC10#9	gnd!#8	5.13306e-18	$X=11.079 $Y=1.276
C87	phi#12	avC8#15	2.23569e-18	$X=9.2365 $Y=1.828
C88	avC10#9	phi#30	1.77306e-18	$X=11.6475 $Y=1.6405
C89	avC10#8	avC8#15	1.29418e-18	$X=9.766 $Y=1.8575
C90	phi#12	avC10#4	1.84825e-18	$X=9.2585 $Y=1.2535
C91	avC8#12	avC9#5	1.60927e-16	$X=7.3735 $Y=1.292
C92	avC10#8	phi#12	1.20038e-17	$X=9.7025 $Y=1.998
C93	avC8#13	avC10#4	2.60897e-18	$X=9.573 $Y=0.987
C94	avC10#9	vdd!#1	3.23323e-17	$X=11.0685 $Y=1.283
C95	avC9#15	avC8#15	2.1703e-18	$X=9.5845 $Y=1.7045
C96	phi_bar#4	vdd!#1	2.09993e-17	$X=9.0835 $Y=1.92
C97	phi_bar#3	avC8#15	1.14993e-17	$X=9.174 $Y=1.338
C98	phi#12	avC10#5	3.93104e-18	$X=9.475 $Y=1.8875
C99	avC8#12	avC9#16	1.44608e-17	$X=9.9385 $Y=1.193
C100	avC8#15	gnd!#8	1.09624e-17	$X=9.504 $Y=1.769
C101	avC8#15	vdd!#1	1.94992e-17	$X=9.501 $Y=1.7745
C102	avC10#11	avC9#16	1.5196e-18	$X=10.411 $Y=1.5315
C103	avC9#15	phi#12	2.17243e-17	$X=8.9085 $Y=1.7285
C104	phi#24	avC9#16	2.1532e-18	$X=10.426 $Y=1.405
C105	avC9#16	vdd!#1	4.0114e-17	$X=10.0895 $Y=1.2335
C106	avC10#11	phi#30	2.68258e-18	$X=11.6835 $Y=1.9445
C107	avC9#15	avC10#8	5.07093e-17	$X=10.0315 $Y=1.8485
C108	phi#2	vdd!#1	6.94832e-17	$X=3.193 $Y=2.359
C109	phi#30	vdd!#1	5.00341e-17	$X=12.111 $Y=1.95
C110	avC8#12	avC9#15	1.33976e-16	$X=9.5455 $Y=1.252
C111	avC8#12	avC10#4	2.0771e-17	$X=9.366 $Y=1.176
C112	avC9#5	vdd!#1	2.98275e-17	$X=6.4905 $Y=1.507
C113	avC10#8	phi#24	3.8062e-17	$X=10.388 $Y=2.0185
C114	phi#12	vdd!#1	9.51895e-17	$X=6.932 $Y=2.3735
C115	avC9#15	avC10#11	2.8835e-17	$X=10.6115 $Y=1.811
C116	phi#11	vdd!#1	2.89367e-17	$X=6.53 $Y=1.8145
C117	avC9#5	phi#18	1.18511e-17	$X=6.093 $Y=1.4215
C118	avC10#4	avC9#15	1.14561e-17	$X=9.456 $Y=1.213
C119	avC8#12	gnd!#8	2.59058e-17	$X=8.907 $Y=0.991
C120	Y	phi#29	1.12606e-17	$X=12.3435 $Y=1.3955
C121	avC9#15	avC10#5	1.24845e-17	$X=9.7495 $Y=1.779
C122	avC8#12	vdd!#1	6.78274e-18	$X=8.9095 $Y=1.0565
C123	avC10#11	phi#24	6.18394e-17	$X=11.0985 $Y=2.025
C124	avC8#12	avC9#14	1.01471e-17	$X=10.248 $Y=0.7075
C125	avC9#15	vdd!#1	2.64832e-17	$X=9.92 $Y=1.4465
C126	avC10#11	gnd!#8	1.63379e-18	$X=10.8295 $Y=1.9405
C127	avC8#13	avC9#14	4.26106e-17	$X=10.225 $Y=0.584
C128	avC10#11	vdd!#1	2.26117e-17	$X=10.8145 $Y=1.947
C129	avC8#4	phi#8	1.74123e-17	$X=1.59 $Y=1.601
C130	phi#7	gnd!#8	2.59215e-18	$X=1.875 $Y=1.4145
C131	phi#24	vdd!#1	8.31006e-17	$X=12.061 $Y=2.3685
C132	phi#12	I13/avC7#4	2.435e-18	$X=8.8665 $Y=1.9665
C133	phi#24	avC10#5	2.25825e-18	$X=10.0155 $Y=1.9085
C134	avC9#15	avC10#10	1.19461e-17	$X=10.8505 $Y=1.586
C135	phi#29	gnd!#8	2.64087e-18	$X=12.4745 $Y=1.4145
C136	phi_bar#2	avC8#14	8.00216e-18	$X=9.399 $Y=0.636
C137	phi#7	vdd!#1	4.02281e-17	$X=1.8975 $Y=1.4185
C138	avC10#8	I13/avC7	7.60389e-19	$X=10.0775 $Y=1.9265
C139	avC9#15	I13/avC7#4	2.63767e-18	$X=9.487 $Y=1.745
C140	avC8#13	gnd!#8	1.86619e-17	$X=9.9765 $Y=0.517
C141	avC9#15	avC10#6	1.56638e-18	$X=9.7825 $Y=1.745
C142	avC10#4	vdd!#1	9.66326e-18	$X=9.398 $Y=1.1935
C143	avC8#12	phi#18	1.62249e-18	$X=6.2605 $Y=1.383
C144	phi#29	vdd!#1	3.21091e-17	$X=12.4635 $Y=1.4185
C145	avC9#15	I13/avC7	9.94125e-19	$X=10.0685 $Y=1.758
C146	avC8#12	phi_bar#3	1.55519e-18	$X=9.047 $Y=1.172
C147	phi#24	avC10#10	4.42012e-18	$X=11.0875 $Y=1.6805
C148	avC9#14	gnd!#8	2.39091e-17	$X=10.4915 $Y=0.6565
C149	avC8#12	phi_bar#2	2.59037e-18	$X=9.1105 $Y=0.5595
C150	phi#24	I13/avC7	9.0658e-19	$X=10.5685 $Y=1.9895
C151	phi#2	gnd!#20	1.34339e-17	$X=3.027 $Y=1.78
C152	gnd!#14	avC8#14	3.69028e-18	$X=9.502 $Y=0.608
C153	avC10#12	phi#25	1.48952e-17	$X=12.534 $Y=0.627
C154	avC9#6	phi#18	1.92319e-18	$X=5.977 $Y=1.3545
C155	avC10#12	phi#29	4.01898e-18	$X=12.428 $Y=1.366
C156	I12/avC6	gnd!#1	1.01372e-16	$X=13.3625 $Y=0.779
C157	phi#12	B#2	7.33398e-19	$X=6.0445 $Y=1.4765
C158	phi#12	I13/avC7#2	6.19668e-19	$X=9.75 $Y=2.065
C159	Y#1	vdd!#4	5.98184e-18	$X=11.898 $Y=2.0945
C160	vdd!#12	B#2	1.54671e-18	$X=5.4775 $Y=2.1315
C161	avC9#15	I13/avC7#5	1.21269e-17	$X=9.43 $Y=1.899
C162	I12/avC6	phi#29	6.03719e-18	$X=12.4765 $Y=1.3975
C163	phi#22	vdd!#1	7.78453e-17	$X=12.9715 $Y=1.5915
C164	vdd!#4	avC10#12	2.11251e-18	$X=11.9025 $Y=2.1315
C165	avC8#12	vdd!#8	3.56829e-18	$X=8.878 $Y=1.8845
C166	Y#1	gnd!#8	1.00694e-17	$X=11.7345 $Y=0.81
C167	Y#1	phi#29	2.78598e-18	$X=12.4025 $Y=1.355
C168	A#1	avC8#5	2.9249e-17	$X=0.596 $Y=1.2715
C169	avC9#6	B#2	5.09178e-17	$X=5.301 $Y=0.7405
C170	I13/avC7#2	avC9#16	2.633e-17	$X=10.115 $Y=1.611
C171	I10/avC6	avC8#4	1.81658e-18	$X=1.6375 $Y=1.3655
C172	phi_bar	avC10#2	1.02619e-17	$X=8.6105 $Y=0.917
C173	avC9#2	vdd!#1	3.3285e-18	$X=5.917 $Y=2.049
C174	Y#1	gnd!#1	7.41474e-18	$X=12.563 $Y=0.8145
C175	avC8#12	gnd!#14	5.6554e-18	$X=9.3095 $Y=0.5205
C176	gnd!#20	avC9#6	2.32255e-18	$X=4.242 $Y=0.8145
C177	A#2	phi#3	1.45334e-17	$X=1.934 $Y=0.627
C178	phi#12	I13/avC7#5	1.87998e-17	$X=9.0075 $Y=2.065
C179	avC8#12	B#2	7.17338e-19	$X=7.2725 $Y=0.8255
C180	I13/avC7#5	avC9#16	2.81118e-18	$X=9.7105 $Y=1.6105
C181	avC8#5	phi#12	1.93855e-17	$X=4.608 $Y=1.713
C182	I11/avC6	phi#18	4.28125e-18	$X=6.0515 $Y=1.3975
C183	gnd!#14	phi_bar#2	1.16785e-17	$X=9.2355 $Y=0.5095
C184	gnd!#20	vdd!#1	3.13784e-17	$X=3.156 $Y=0.884
C185	avC9#5	gnd!#16	2.15823e-17	$X=6.7165 $Y=1.2065
C186	gnd!#20	phi#3	5.75647e-17	$X=2.885 $Y=0.742
C187	I13/avC7#2	vdd!#1	2.17413e-17	$X=10.1265 $Y=2.031
C188	avC8#5	A#2	5.97941e-17	$X=1.307 $Y=0.7125
C189	I11/avC6	B#1	6.47312e-18	$X=4.705 $Y=1.2595
C190	avC10#2	gnd!#14	2.0449e-17	$X=9.1875 $Y=0.592
C191	avC8#5	phi#1	1.11596e-17	$X=2.4135 $Y=1.415
C192	gnd!#20	B#1	9.90918e-19	$X=4.427 $Y=1.221
C193	phi#12	avC9#2	2.03824e-17	$X=5.9525 $Y=2.062
C194	vdd!#16	A#2	2.11251e-18	$X=1.3025 $Y=2.1315
C195	vdd!#12	phi#19	1.62674e-17	$X=5.575 $Y=2.1095
C196	I10/avC6	phi#7	4.40398e-18	$X=1.8765 $Y=1.3975
C197	Y#1	phi#25	3.05612e-18	$X=12.344 $Y=0.7435
C198	avC8#5	I11/avC6	2.08776e-17	$X=2.9955 $Y=0.7635
C199	avC10#2	vdd!#8	1.50943e-17	$X=8.895 $Y=1.368
C200	avC9#6	phi#14	2.60006e-18	$X=5.915 $Y=0.744
C201	avC8#12	gnd!#16	5.058e-17	$X=7.959 $Y=0.9
C202	avC9#6	vdd!#1	1.44722e-17	$X=5.4145 $Y=0.863
C203	avC8#2	phi#2	9.51024e-18	$X=1.8765 $Y=2.0795
C204	I10/avC6	A#1	9.92959e-18	$X=0.555 $Y=1.286
C205	avC9#2	phi#11	8.73349e-18	$X=6.1305 $Y=1.9615
C206	vdd!#12	avC9#2	2.3029e-17	$X=5.7155 $Y=2.128
C207	I11/avC6	phi#3	9.45741e-19	$X=3.622 $Y=0.623
C208	avC10#12	gnd!#8	1.16203e-16	$X=11.707 $Y=0.625
C209	I13/avC7#2	avC10#11	5.21885e-18	$X=10.445 $Y=1.9885
C210	avC8#5	B#1	1.39329e-17	$X=4.4295 $Y=1.25
C211	I13/avC7#5	vdd!#1	7.81344e-18	$X=9.292 $Y=2.031
C212	avC8#5	phi#7	6.30969e-18	$X=1.862 $Y=1.3885
C213	phi#12	avC9#6	4.63702e-18	$X=5.8675 $Y=1.377
C214	vdd!#8	I13/avC7#5	4.36678e-17	$X=9.052 $Y=2.007
C215	I12/avC6	Y	3.41913e-18	$X=12.2375 $Y=1.3655
C216	gnd!#1	phi#22	3.30071e-17	$X=13.126 $Y=1.4175
C217	I10/avC6	A#2	6.46082e-17	$X=1.313 $Y=0.619
C218	avC10#11	I12/avC6	3.87867e-18	$X=10.918 $Y=1.872
C219	I11/avC6	phi#13	1.00744e-18	$X=6.6325 $Y=1.4315
C220	avC10#4	I13/avC7#5	1.43299e-17	$X=9.367 $Y=1.445
C221	B#2	gnd!#8	1.14744e-16	$X=5.2855 $Y=0.625
C222	avC10#8	I13/avC7#2	1.46233e-17	$X=10.092 $Y=1.989
C223	phi#12	vdd!#8	1.73768e-17	$X=8.694 $Y=2.025
C224	I10/avC6	phi#1	1.01929e-18	$X=2.458 $Y=1.43
C225	Y#1	vdd!#1	5.8852e-18	$X=11.656 $Y=0.8635
C226	gnd!#16	phi#13	3.2174e-17	$X=6.712 $Y=1.377
C227	avC8#5	phi#8	1.69238e-18	$X=1.528 $Y=1.882
C228	avC10#2	phi_bar#3	1.2349e-17	$X=9.011 $Y=1.0575
C229	avC10#5	I13/avC7#2	4.23437e-17	$X=9.8855 $Y=1.919
C230	avC8#5	I10/avC6	1.25306e-16	$X=1.698 $Y=0.7635
C231	I11/avC6	phi#14	5.99408e-17	$X=6.754 $Y=0.623
C232	I12/avC6	Y#1	8.90946e-17	$X=11.8675 $Y=0.776
C233	phi_bar#1	avC10#2	1.77179e-17	$X=8.7295 $Y=0.938
C234	gnd!#16	phi_bar	1.18573e-17	$X=8.4935 $Y=0.9465
C235	avC9#15	vdd!#8	1.13395e-17	$X=9.048 $Y=1.899
C236	avC10#8	I13/avC7#5	3.97836e-18	$X=9.688 $Y=1.989
C237	avC8#5	vdd!#12	2.9854e-18	$X=5.33 $Y=2.165
C238	avC8#4	A#2	3.45042e-18	$X=1.604 $Y=1.3395
C239	vdd!#8	phi_bar#1	1.621e-18	$X=8.7035 $Y=1.5545
C240	avC8#12	avC10#2	1.70409e-17	$X=8.9135 $Y=0.801
C241	avC8#5	avC9#6	3.81724e-17	$X=4.1995 $Y=0.818
C242	gnd!#1	phi#25	6.52547e-17	$X=13.485 $Y=0.742
C243	avC9#13	avC10#12	5.0384e-18	$X=10.3565 $Y=0.756
C244	avC8#2	vdd!#1	3.02449e-18	$X=1.7525 $Y=2.049
C245	gnd!#16	B#2	1.81686e-18	$X=6.354 $Y=0.738
C246	phi#22	vdd!	4.1527e-18	$X=12.75 $Y=1.6465
C247	phi#3	B#2	9.68471e-19	$X=4.0595 $Y=0.627
C248	avC8#2	phi	6.64941e-18	$X=2.057 $Y=1.9545
C249	avC8#2	vdd!	9.36769e-18	$X=1.818 $Y=2.0585
C250	avC9#14	avC10#12	4.74949e-18	$X=10.65 $Y=0.652
C251	avC10#2	phi_bar#2	1.22755e-17	$X=9.0455 $Y=0.6235
C252	avC9#5	I11/avC6	3.31238e-18	$X=6.3865 $Y=1.3555
C253	vdd!#8	phi_bar#4	2.06212e-17	$X=8.9855 $Y=1.9525
C254	avC8#12	phi#14	5.4115e-18	$X=8.0485 $Y=0.831
C255	Y	avC10#12	3.97823e-18	$X=12.204 $Y=1.3395
C256	gnd!#14	avC8#13	2.3369e-17	$X=9.505 $Y=0.4985
C257	phi#12	gnd!#16	9.09388e-18	$X=7.0045 $Y=1.4525
C258	avC9#6	B#1	1.95807e-17	$X=4.757 $Y=1.2085
C259	I13/avC7#5	phi_bar#4	1.74901e-17	$X=9.167 $Y=1.96
C260	I11/avC6	gnd!#8	4.77884e-17	$X=6.126 $Y=0.6035
C261	avC8#5	phi#3	8.53391e-18	$X=2.278 $Y=0.7175
C262	A#2	gnd!#8	1.1688e-16	$X=1.113 $Y=0.625
C263	vdd!#4	phi#30	1.62713e-17	$X=12 $Y=2.1095
C264	I12/avC6	phi#25	6.28472e-17	$X=13.179 $Y=0.623
C265	phi#12	vdd!#12	1.89915e-17	$X=5.5625 $Y=2.229
C266	avC9#2	vdd!	6.22712e-18	$X=5.936 $Y=2.0585
C267	Y#6	phi#30	1.28427e-17	$X=12.2565 $Y=2.0105
C268	I12/avC6	phi#22	2.21256e-18	$X=12.983 $Y=1.5225
C269	phi#24	I13/avC7#2	1.94402e-17	$X=10.478 $Y=2.083
C270	avC9#15	gnd!#16	1.83048e-18	$X=8.771 $Y=1.1675
C271	avC9#6	gnd!#16	4.52394e-18	$X=6.133 $Y=0.8145
C272	gnd!#20	B#2	1.31421e-18	$X=3.929 $Y=0.738
C273	Y#6	vdd!#1	3.33749e-18	$X=12.326 $Y=2.0495
C274	avC10#11	vdd!#4	6.99263e-18	$X=11.63 $Y=2.148
C275	I13/avC7#2	vdd!	4.60225e-17	$X=10.054 $Y=2.057
C276	avC9#6	vdd!#12	3.11266e-18	$X=5.473 $Y=2.0935
C277	vdd!	I13/avC7#5	4.5712e-17	$X=9.2435 $Y=2.057
C278	avC8#5	vdd!#16	5.98184e-18	$X=1.3255 $Y=2.165
C279	I10/avC6	gnd!#8	7.48275e-17	$X=1.9585 $Y=0.6035
C280	Y#6	vdd!	6.22712e-18	$X=12.2735 $Y=2.059
C281	A#2	phi#8	8.14496e-19	$X=1.491 $Y=1.841
C282	I13/avC7#5	avC10#5	4.09668e-17	$X=9.543 $Y=1.919
C283	I12/avC6	gnd!#8	5.2618e-17	$X=12.539 $Y=0.6035
C284	avC8#5	gnd!#20	7.20087e-17	$X=2.488 $Y=0.826
C285	avC10#11	Y#6	2.3348e-18	$X=11.984 $Y=2.023
C286	phi#25	gnd!#8	1.26958e-16	$X=13.3855 $Y=0.6305
C287	avC9#2	phi#19	1.29166e-17	$X=5.8315 $Y=2.01
C288	avC10#2	gnd!#8	3.9759e-18	$X=8.914 $Y=0.7795
C289	Y#6	phi#22	9.57413e-18	$X=12.4735 $Y=1.9515
C290	avC8#5	gnd!#8	3.22351e-17	$X=1.59 $Y=0.8375
C291	Y#1	avC10#9	2.37327e-17	$X=11.1755 $Y=1.2075
C292	I12/avC6	avC9#13	2.36891e-18	$X=10.3155 $Y=0.761
C293	I11/avC6	gnd!#16	9.35242e-17	$X=6.9375 $Y=0.779
C294	gnd!#1	vdd!#1	5.73221e-17	$X=13.3945 $Y=0.884
C295	avC10#8	vdd!#8	2.66039e-18	$X=9.3955 $Y=1.9755
C296	gnd!#1	phi#29	3.73871e-18	$X=12.564 $Y=1.365
C297	gnd!#16	phi_bar#1	1.92254e-17	$X=8.357 $Y=1.073
C298	avC8#12	I13/avC7#5	2.6418e-18	$X=9.2395 $Y=1.8795
C299	avC9#14	I12/avC6	3.12669e-17	$X=10.586 $Y=0.654
C300	phi#14	gnd!#8	1.22269e-16	$X=6.9645 $Y=0.6305
C301	vdd!#4	Y#6	2.3029e-17	$X=12.1405 $Y=2.128
C302	avC9#15	avC10#2	4.92358e-18	$X=9.0735 $Y=0.8775
C303	avC8#5	vdd!#1	6.16439e-17	$X=2.06 $Y=0.956
C304	phi#24	Y#1	8.0825e-18	$X=11.9385 $Y=1.546
C305	gnd!#20	A#2	1.49235e-18	$X=2.179 $Y=0.738
C306	gnd!#16	phi#18	3.62156e-18	$X=6.139 $Y=1.365
C307	I13/avC7#2	avC8#15	2.2702e-18	$X=9.793 $Y=1.887
C308	gnd!#1	avC10#12	2.00679e-18	$X=12.779 $Y=0.738
C309	A#2	phi#7	4.01898e-18	$X=1.828 $Y=1.366
C310	gnd!#14	avC10#4	6.73546e-18	$X=9.364 $Y=0.8105
C311	gnd!#20	I10/avC6	9.35242e-17	$X=2.7625 $Y=0.779
C312	I13/avC7#5	avC8#15	1.66282e-17	$X=9.408 $Y=1.887
C313	I11/avC6	B#2	5.9417e-17	$X=5.488 $Y=0.619
C314	I12/avC6	avC10#9	1.079e-17	$X=11.1265 $Y=1.254
C315	I10/avC6	phi#3	6.08468e-17	$X=2.579 $Y=0.623
C316	gnd!#20	phi#1	3.28045e-17	$X=2.5355 $Y=1.377
C317	vdd!#8	phi_bar#3	1.4643e-18	$X=9.001 $Y=1.4205
C318	gnd!#16	phi#14	5.85592e-17	$X=7.06 $Y=0.742
C319	B#2	phi#19	8.10576e-19	$X=5.666 $Y=1.841
C320	vdd!#8	avC8#15	3.10517e-18	$X=9.167 $Y=1.889
C321	I12/avC6	avC10#12	5.83001e-17	$X=11.913 $Y=0.619
C322	avC8#5	B#2	3.76835e-18	$X=3.7465 $Y=0.7125
C323	B#2	phi#18	4.01898e-18	$X=6.003 $Y=1.366
C324	vdd!#16	phi#8	1.70688e-17	$X=1.4 $Y=2.1095
C325	B#2	phi#14	1.451e-17	$X=6.109 $Y=0.627
C326	vdd!#16	avC8#2	2.40577e-17	$X=1.5405 $Y=2.128
C327	phi#3	gnd!#8	1.22334e-16	$X=2.792 $Y=0.6305
C328	avC8#12	I11/avC6	3.23675e-17	$X=8.3265 $Y=0.9095
C329	Y	phi#22	1.22891e-17	$X=12.4035 $Y=1.4235
C330	I13/avC7#2	avC10#10	2.91775e-18	$X=10.6885 $Y=1.7515
C331	avC9#6	gnd!#8	6.67096e-18	$X=5.3115 $Y=0.81
C332	I11/avC6	avC9#6	8.56098e-17	$X=5.4415 $Y=0.7765
C333	avC9#15	I13/avC7#2	3.19499e-17	$X=10.0945 $Y=1.899
C334	gnd!#16	vdd!#1	2.80753e-17	$X=7.1885 $Y=0.884
C335	phi#24	vdd!#4	2.12267e-17	$X=11.9345 $Y=2.233
C336	phi#24	Y#6	2.09589e-17	$X=12.322 $Y=2.07
C337	Y#1	avC10#12	5.42898e-17	$X=11.726 $Y=0.74
C338	avC10#2	vdd!#1	6.95433e-18	$X=8.9145 $Y=0.788
C339	avC8#5	phi#2	2.97087e-17	$X=2.7235 $Y=1.997
C340	avC9#5	B#2	3.27907e-18	$X=6.0445 $Y=1.191
C341	vdd!#16	phi#2	4.85244e-18	$X=1.5285 $Y=2.2375
C342	avC8#2	phi#8	1.3427e-17	$X=1.6565 $Y=2.01
C343	avC9#13	avC10#9	5.77678e-19	$X=10.5795 $Y=0.96
C344	avC10#8	avC9#16	8.07058e-19	$X=10.0745 $Y=1.59
C345	avC10#10	avC9#16	9.53499e-19	$X=10.661 $Y=1.472
C346	phi#12	vdd!#11	1.88509e-18	$X=5.6205 $Y=2.13
C347	phi#11	vdd!	2.09063e-18	$X=6.5515 $Y=1.836
C348	gnd!#20	phi#7	1.36972e-18	$X=1.964 $Y=1.365
C349	avC10#8	vdd!#1	9.15999e-19	$X=10.046 $Y=1.959
C350	avC9#15	gnd!#8	9.36753e-19	$X=9.9435 $Y=1.4155
C351	phi#24	avC9#15	1.31889e-18	$X=10.911 $Y=1.8265
C352	avC10#12	phi#30	8.21279e-19	$X=12.091 $Y=1.841
C353	phi#12	avC10#2	9.36825e-19	$X=8.7405 $Y=0.911
C354	phi#12	avC10#6	9.4103e-19	$X=9.2135 $Y=1.9665
C355	phi#24	avC10#6	9.5486e-19	$X=10.316 $Y=2.0005
C356	avC10#2	avC8#15	7.43404e-19	$X=9.18 $Y=1.225
C357	avC10#8	avC8#12	9.92597e-19	$X=9.9005 $Y=1.8265
C358	avC10#2	avC8#14	9.93074e-19	$X=9.3875 $Y=0.769
C359	vdd!	gnd!	2.99166e-19	$X=7.5015 $Y=1.712
C360	phi_bar	gnd!	5.16147e-18	$X=8.53 $Y=0.9465
C361	phi#8	gnd!	2.27024e-19	$X=1.616 $Y=1.916
C362	phi#19	gnd!	1.00003e-19	$X=5.721 $Y=1.916
C363	phi_bar#4	gnd!	1.20176e-18	$X=9.0485 $Y=1.8855
C364	avC8#15	gnd!	1.38435e-18	$X=9.449 $Y=1.7325
C365	avC9#16	gnd!	2.32402e-18	$X=10.022 $Y=1.197
C366	phi#30	gnd!	1.02955e-19	$X=12.0385 $Y=1.916
C367	A#2	gnd!	1.67373e-17	$X=2.074 $Y=0.5385
C368	phi#3	gnd!	2.05651e-17	$X=3.5 $Y=0.54
C369	B#2	gnd!	2.11226e-17	$X=5.565 $Y=0.5385
C370	phi#14	gnd!	2.24024e-17	$X=6.9695 $Y=0.54
C371	phi_bar#2	gnd!	1.93848e-17	$X=9.101 $Y=0.525
C372	avC10#12	gnd!	1.78531e-17	$X=10.937 $Y=0.5385
C373	phi#25	gnd!	2.17437e-17	$X=12.309 $Y=0.54
C374	A#1	gnd!	1.08133e-19	$X=0.6815 $Y=1.284
C375	B#1	gnd!	2.2814e-19	$X=4.704 $Y=1.2575
C376	phi_bar#1	gnd!	8.08929e-18	$X=8.5005 $Y=1.089
C377	avC8#14	gnd!	1.60485e-18	$X=9.689 $Y=0.753
C378	avC9#13	gnd!	3.47576e-18	$X=10.2285 $Y=0.756
C379	avC10#9	gnd!	1.01651e-18	$X=10.998 $Y=1.2525
C380	avC8#5	gnd!	3.33723e-17	$X=2.7535 $Y=0.6775
C381	avC9#5	gnd!	1.0283e-20	$X=6.4805 $Y=1.3535
C382	phi#12	gnd!	7.69631e-18	$X=6.858 $Y=1.977
C383	avC10#8	gnd!	7.18304e-19	$X=9.979 $Y=1.9095
C384	avC8#12	gnd!	3.63326e-17	$X=8.6425 $Y=0.867
C385	avC9#15	gnd!	7.75874e-18	$X=9.674 $Y=1.2945
C386	avC10#11	gnd!	1.77246e-19	$X=10.707 $Y=1.882
C387	phi#24	gnd!	3.61171e-18	$X=11.5655 $Y=2.0975
C388	vdd!#1	gnd!	6.5422e-19	$X=7.388 $Y=0.6175
C389	avC9	gnd!	2.91625e-19	$X=5.9095 $Y=2.0725
C390	vdd!#7	gnd!	1.72501e-18	$X=8.826 $Y=1.82
C391	Y#5	gnd!	3.50903e-19	$X=12.217 $Y=2.0725
C392	I10/avC6	gnd!	2.29202e-16	$X=3.8625 $Y=0.4115
C393	I11/avC6	gnd!	2.49143e-16	$X=6.4545 $Y=0.4115
C394	I12/avC6	gnd!	2.26347e-16	$X=10.443 $Y=0.4115
C395	avC10#4	gnd!	1.84387e-18	$X=9.3715 $Y=1.1765
C396	avC10#5	gnd!	6.5422e-19	$X=9.6655 $Y=1.814
C397	avC8#13	gnd!	3.63592e-17	$X=9.8975 $Y=0.5055
C398	avC9#14	gnd!	3.84789e-17	$X=10.392 $Y=0.6405
C399	avC9#6	gnd!	1.01604e-18	$X=5.4875 $Y=0.7355
C400	phi_bar#3	gnd!	5.3199e-19	$X=9.0375 $Y=1.1725
C401	avC10#2	gnd!	2.83075e-17	$X=8.8795 $Y=0.767
C402	I13/avC7#2	gnd!	7.21569e-19	$X=10.053 $Y=1.9765
C403	Y#1	gnd!	1.10142e-17	$X=11.2345 $Y=0.7345
*
*
.ENDS lab2_nora
*
