*
*
*
*                       LINUX           Thu May 16 15:09:17 2024
*
*
*
*  PROGRAM  advgen
*
*  Name           : advgen - Quantus - (64-bit)
*  Version        : 20.1.2-p025
*  Build Date     : Thu Sep 3 13:54:09 PDT 2020
*
*  HSPICE LIBRARY
*
*!LENGTH_UNITS METERS
*
*
*

*
.SUBCKT lab4_alu vdd! gnd! A0 A1 A2 A3 A4 A5 A6 A7 B0 B1 B2 B3 B4 B5 B6 B7 CLK
+ EN FN0 FN1 FN2 OF Y0 Y1 Y2 Y3 Y4 Y5 Y6 Y7
*
*
*  caps2d version: 10
*
*
*       TRANSISTOR CARDS
*
*
MI21/I7/avD1_1	gnd!#785	avC90#29	I21/I7/avC6#5	gnd!#5
+ nmos1v#20ivpcell#20gpdk090	L=1e-07	W=1.2e-07
+ AD=4.08e-14	AS=6.96e-14	PD=6.8e-07	PS=1.16e-06	simW=1.2e-07 fw=1.2e-07
MI21/I7/avD1_2	I21/I7/avC7#8	avC91#35	gnd!#785	gnd!#5
+ nmos1v#20ivpcell#20gpdk090	L=1e-07	W=1.2e-07
+ AD=6.96e-14	AS=4.08e-14	PD=1.16e-06	PS=6.8e-07	simW=1.2e-07 fw=1.2e-07
MI21/I7/avD1_3	I21/I7/avC8	I21/I7/avC6#10	gnd!#791	gnd!#5
+ nmos1v#20ivpcell#20gpdk090	L=1e-07	W=2.4e-07
+ AD=1.44e-14	AS=6.72e-14	PD=3.6e-07	PS=1.04e-06	simW=2.4e-07 fw=2.4e-07
MI21/I7/avD1_4	avC69#17	I21/I7/avC7#4	I21/I7/avC8	gnd!#5
+ nmos1v#20ivpcell#20gpdk090	L=1e-07	W=2.4e-07
+ AD=3.84e-14	AS=1.44e-14	PD=5.6e-07	PS=3.6e-07	simW=2.4e-07 fw=2.4e-07
MI21/I7/avD1_5	I21/I7/avC9	avC91#25	avC69#17	gnd!#5
+ nmos1v#20ivpcell#20gpdk090	L=1e-07	W=2.4e-07
+ AD=1.44e-14	AS=3.84e-14	PD=3.6e-07	PS=5.6e-07	simW=2.4e-07 fw=2.4e-07
MI21/I7/avD1_6	gnd!#797	avC90#28	I21/I7/avC9	gnd!#5
+ nmos1v#20ivpcell#20gpdk090	L=1e-07	W=2.4e-07
+ AD=6.72e-14	AS=1.44e-14	PD=1.04e-06	PS=3.6e-07	simW=2.4e-07 fw=2.4e-07
MI21/I6/avD1_1	gnd!#766	avC34#33	I21/I6/avC6#5	gnd!#5
+ nmos1v#20ivpcell#20gpdk090	L=1e-07	W=1.2e-07
+ AD=4.08e-14	AS=6.96e-14	PD=6.8e-07	PS=1.16e-06	simW=1.2e-07 fw=1.2e-07
MI21/I6/avD1_2	I21/I6/avC7#8	avC80#35	gnd!#766	gnd!#5
+ nmos1v#20ivpcell#20gpdk090	L=1e-07	W=1.2e-07
+ AD=6.96e-14	AS=4.08e-14	PD=1.16e-06	PS=6.8e-07	simW=1.2e-07 fw=1.2e-07
MI21/I6/avD1_3	I21/I6/avC8	I21/I6/avC6#10	gnd!#772	gnd!#5
+ nmos1v#20ivpcell#20gpdk090	L=1e-07	W=2.4e-07
+ AD=1.44e-14	AS=6.72e-14	PD=3.6e-07	PS=1.04e-06	simW=2.4e-07 fw=2.4e-07
MI21/I6/avD1_4	avC71#19	I21/I6/avC7#4	I21/I6/avC8	gnd!#5
+ nmos1v#20ivpcell#20gpdk090	L=1e-07	W=2.4e-07
+ AD=3.84e-14	AS=1.44e-14	PD=5.6e-07	PS=3.6e-07	simW=2.4e-07 fw=2.4e-07
MI21/I6/avD1_5	I21/I6/avC9	avC80#27	avC71#19	gnd!#5
+ nmos1v#20ivpcell#20gpdk090	L=1e-07	W=2.4e-07
+ AD=1.44e-14	AS=3.84e-14	PD=3.6e-07	PS=5.6e-07	simW=2.4e-07 fw=2.4e-07
MI21/I6/avD1_6	gnd!#778	avC34#28	I21/I6/avC9	gnd!#5
+ nmos1v#20ivpcell#20gpdk090	L=1e-07	W=2.4e-07
+ AD=6.72e-14	AS=1.44e-14	PD=1.04e-06	PS=3.6e-07	simW=2.4e-07 fw=2.4e-07
MI21/I5/avD1_1	gnd!#744	avC40#42	I21/I5/avC6#5	gnd!#5
+ nmos1v#20ivpcell#20gpdk090	L=1e-07	W=1.2e-07
+ AD=4.08e-14	AS=6.96e-14	PD=6.8e-07	PS=1.16e-06	simW=1.2e-07 fw=1.2e-07
MI21/I5/avD1_2	I21/I5/avC7#8	avC74#50	gnd!#744	gnd!#5
+ nmos1v#20ivpcell#20gpdk090	L=1e-07	W=1.2e-07
+ AD=6.96e-14	AS=4.08e-14	PD=1.16e-06	PS=6.8e-07	simW=1.2e-07 fw=1.2e-07
MI21/I5/avD1_3	I21/I5/avC8	I21/I5/avC6#10	gnd!#753	gnd!#5
+ nmos1v#20ivpcell#20gpdk090	L=1e-07	W=2.4e-07
+ AD=1.44e-14	AS=6.72e-14	PD=3.6e-07	PS=1.04e-06	simW=2.4e-07 fw=2.4e-07
MI21/I5/avD1_4	avC72#14	I21/I5/avC7#4	I21/I5/avC8	gnd!#5
+ nmos1v#20ivpcell#20gpdk090	L=1e-07	W=2.4e-07
+ AD=3.84e-14	AS=1.44e-14	PD=5.6e-07	PS=3.6e-07	simW=2.4e-07 fw=2.4e-07
MI21/I5/avD1_5	I21/I5/avC9	avC74#43	avC72#14	gnd!#5
+ nmos1v#20ivpcell#20gpdk090	L=1e-07	W=2.4e-07
+ AD=1.44e-14	AS=3.84e-14	PD=3.6e-07	PS=5.6e-07	simW=2.4e-07 fw=2.4e-07
MI21/I5/avD1_6	gnd!#759	avC40#38	I21/I5/avC9	gnd!#5
+ nmos1v#20ivpcell#20gpdk090	L=1e-07	W=2.4e-07
+ AD=6.72e-14	AS=1.44e-14	PD=1.04e-06	PS=3.6e-07	simW=2.4e-07 fw=2.4e-07
MI21/I4/avD1_1	gnd!#725	avC49#54	I21/I4/avC6#5	gnd!#5
+ nmos1v#20ivpcell#20gpdk090	L=1e-07	W=1.2e-07
+ AD=4.08e-14	AS=6.96e-14	PD=6.8e-07	PS=1.16e-06	simW=1.2e-07 fw=1.2e-07
MI21/I4/avD1_2	I21/I4/avC7#8	avC70#49	gnd!#725	gnd!#5
+ nmos1v#20ivpcell#20gpdk090	L=1e-07	W=1.2e-07
+ AD=6.96e-14	AS=4.08e-14	PD=1.16e-06	PS=6.8e-07	simW=1.2e-07 fw=1.2e-07
MI21/I4/avD1_3	I21/I4/avC8	I21/I4/avC6#10	gnd!#734	gnd!#5
+ nmos1v#20ivpcell#20gpdk090	L=1e-07	W=2.4e-07
+ AD=1.44e-14	AS=6.72e-14	PD=3.6e-07	PS=1.04e-06	simW=2.4e-07 fw=2.4e-07
MI21/I4/avD1_4	avC76#17	I21/I4/avC7#4	I21/I4/avC8	gnd!#5
+ nmos1v#20ivpcell#20gpdk090	L=1e-07	W=2.4e-07
+ AD=3.84e-14	AS=1.44e-14	PD=5.6e-07	PS=3.6e-07	simW=2.4e-07 fw=2.4e-07
MI21/I4/avD1_5	I21/I4/avC9	avC70#44	avC76#17	gnd!#5
+ nmos1v#20ivpcell#20gpdk090	L=1e-07	W=2.4e-07
+ AD=1.44e-14	AS=3.84e-14	PD=3.6e-07	PS=5.6e-07	simW=2.4e-07 fw=2.4e-07
MI21/I4/avD1_6	gnd!#740	avC49#47	I21/I4/avC9	gnd!#5
+ nmos1v#20ivpcell#20gpdk090	L=1e-07	W=2.4e-07
+ AD=6.72e-14	AS=1.44e-14	PD=1.04e-06	PS=3.6e-07	simW=2.4e-07 fw=2.4e-07
MI21/I3/avD1_1	gnd!#706	avC59#61	I21/I3/avC6#5	gnd!#5
+ nmos1v#20ivpcell#20gpdk090	L=1e-07	W=1.2e-07
+ AD=4.08e-14	AS=6.96e-14	PD=6.8e-07	PS=1.16e-06	simW=1.2e-07 fw=1.2e-07
MI21/I3/avD1_2	I21/I3/avC7#8	avC61#62	gnd!#706	gnd!#5
+ nmos1v#20ivpcell#20gpdk090	L=1e-07	W=1.2e-07
+ AD=6.96e-14	AS=4.08e-14	PD=1.16e-06	PS=6.8e-07	simW=1.2e-07 fw=1.2e-07
MI21/I3/avD1_3	I21/I3/avC8	I21/I3/avC6#10	gnd!#715	gnd!#5
+ nmos1v#20ivpcell#20gpdk090	L=1e-07	W=2.4e-07
+ AD=1.44e-14	AS=6.72e-14	PD=3.6e-07	PS=1.04e-06	simW=2.4e-07 fw=2.4e-07
MI21/I3/avD1_4	avC78#14	I21/I3/avC7#4	I21/I3/avC8	gnd!#5
+ nmos1v#20ivpcell#20gpdk090	L=1e-07	W=2.4e-07
+ AD=3.84e-14	AS=1.44e-14	PD=5.6e-07	PS=3.6e-07	simW=2.4e-07 fw=2.4e-07
MI21/I3/avD1_5	I21/I3/avC9	avC61#52	avC78#14	gnd!#5
+ nmos1v#20ivpcell#20gpdk090	L=1e-07	W=2.4e-07
+ AD=1.44e-14	AS=3.84e-14	PD=3.6e-07	PS=5.6e-07	simW=2.4e-07 fw=2.4e-07
MI21/I3/avD1_6	gnd!#718	avC59#57	I21/I3/avC9	gnd!#5
+ nmos1v#20ivpcell#20gpdk090	L=1e-07	W=2.4e-07
+ AD=6.72e-14	AS=1.44e-14	PD=1.04e-06	PS=3.6e-07	simW=2.4e-07 fw=2.4e-07
MI21/I2/avD1_1	gnd!#687	avC56#60	I21/I2/avC6#5	gnd!#5
+ nmos1v#20ivpcell#20gpdk090	L=1e-07	W=1.2e-07
+ AD=4.08e-14	AS=6.96e-14	PD=6.8e-07	PS=1.16e-06	simW=1.2e-07 fw=1.2e-07
MI21/I2/avD1_2	I21/I2/avC7#8	avC53#60	gnd!#687	gnd!#5
+ nmos1v#20ivpcell#20gpdk090	L=1e-07	W=1.2e-07
+ AD=6.96e-14	AS=4.08e-14	PD=1.16e-06	PS=6.8e-07	simW=1.2e-07 fw=1.2e-07
MI21/I2/avD1_3	I21/I2/avC8	I21/I2/avC6#10	gnd!#693	gnd!#5
+ nmos1v#20ivpcell#20gpdk090	L=1e-07	W=2.4e-07
+ AD=1.44e-14	AS=6.72e-14	PD=3.6e-07	PS=1.04e-06	simW=2.4e-07 fw=2.4e-07
MI21/I2/avD1_4	avC81#17	I21/I2/avC7#4	I21/I2/avC8	gnd!#5
+ nmos1v#20ivpcell#20gpdk090	L=1e-07	W=2.4e-07
+ AD=3.84e-14	AS=1.44e-14	PD=5.6e-07	PS=3.6e-07	simW=2.4e-07 fw=2.4e-07
MI21/I2/avD1_5	I21/I2/avC9	avC53#55	avC81#17	gnd!#5
+ nmos1v#20ivpcell#20gpdk090	L=1e-07	W=2.4e-07
+ AD=1.44e-14	AS=3.84e-14	PD=3.6e-07	PS=5.6e-07	simW=2.4e-07 fw=2.4e-07
MI21/I2/avD1_6	gnd!#699	avC56#59	I21/I2/avC9	gnd!#5
+ nmos1v#20ivpcell#20gpdk090	L=1e-07	W=2.4e-07
+ AD=6.72e-14	AS=1.44e-14	PD=1.04e-06	PS=3.6e-07	simW=2.4e-07 fw=2.4e-07
MI21/I1/avD1_1	gnd!#665	avC39#57	I21/I1/avC6#5	gnd!#5
+ nmos1v#20ivpcell#20gpdk090	L=1e-07	W=1.2e-07
+ AD=4.08e-14	AS=6.96e-14	PD=6.8e-07	PS=1.16e-06	simW=1.2e-07 fw=1.2e-07
MI21/I1/avD1_2	I21/I1/avC7#8	avC44#60	gnd!#665	gnd!#5
+ nmos1v#20ivpcell#20gpdk090	L=1e-07	W=1.2e-07
+ AD=6.96e-14	AS=4.08e-14	PD=1.16e-06	PS=6.8e-07	simW=1.2e-07 fw=1.2e-07
MI21/I1/avD1_3	I21/I1/avC8	I21/I1/avC6#10	gnd!#674	gnd!#5
+ nmos1v#20ivpcell#20gpdk090	L=1e-07	W=2.4e-07
+ AD=1.44e-14	AS=6.72e-14	PD=3.6e-07	PS=1.04e-06	simW=2.4e-07 fw=2.4e-07
MI21/I1/avD1_4	avC83#17	I21/I1/avC7#4	I21/I1/avC8	gnd!#5
+ nmos1v#20ivpcell#20gpdk090	L=1e-07	W=2.4e-07
+ AD=3.84001e-14	AS=1.44001e-14	PD=5.6e-07	PS=3.6e-07	simW=2.4e-07 fw=2.4e-07
MI21/I1/avD1_5	I21/I1/avC9	avC44#53	avC83#17	gnd!#5
+ nmos1v#20ivpcell#20gpdk090	L=1e-07	W=2.4e-07
+ AD=1.44001e-14	AS=3.84001e-14	PD=3.6e-07	PS=5.6e-07	simW=2.4e-07 fw=2.4e-07
MI21/I1/avD1_6	gnd!#680	avC39#56	I21/I1/avC9	gnd!#5
+ nmos1v#20ivpcell#20gpdk090	L=1e-07	W=2.4e-07
+ AD=6.72e-14	AS=1.44001e-14	PD=1.04e-06	PS=3.6e-07	simW=2.4e-07 fw=2.4e-07
MI21/I0/avD1_1	gnd!#652	avC33#60	I21/I0/avC6#5	gnd!#5
+ nmos1v#20ivpcell#20gpdk090	L=1e-07	W=1.2e-07
+ AD=4.08e-14	AS=6.96001e-14	PD=6.8e-07	PS=1.16e-06	simW=1.2e-07 fw=1.2e-07
MI21/I0/avD1_2	I21/I0/avC7#8	avC37#69	gnd!#652	gnd!#5
+ nmos1v#20ivpcell#20gpdk090	L=1e-07	W=1.2e-07
+ AD=6.96001e-14	AS=4.08001e-14	PD=1.16e-06	PS=6.8e-07	simW=1.2e-07 fw=1.2e-07
MI21/I0/avD1_3	I21/I0/avC8	I21/I0/avC6#10	gnd!#658	gnd!#5
+ nmos1v#20ivpcell#20gpdk090	L=1e-07	W=2.4e-07
+ AD=1.44001e-14	AS=6.72001e-14	PD=3.6e-07	PS=1.04e-06	simW=2.4e-07 fw=2.4e-07
MI21/I0/avD1_4	avC86#14	I21/I0/avC7#4	I21/I0/avC8	gnd!#5
+ nmos1v#20ivpcell#20gpdk090	L=1e-07	W=2.4e-07
+ AD=3.84001e-14	AS=1.44001e-14	PD=5.6e-07	PS=3.6e-07	simW=2.4e-07 fw=2.4e-07
MI21/I0/avD1_5	I21/I0/avC9	avC37#52	avC86#14	gnd!#5
+ nmos1v#20ivpcell#20gpdk090	L=1e-07	W=2.4e-07
+ AD=1.44001e-14	AS=3.84001e-14	PD=3.6e-07	PS=5.6e-07	simW=2.4e-07 fw=2.4e-07
MI21/I0/avD1_6	gnd!#661	avC33#56	I21/I0/avC9	gnd!#5
+ nmos1v#20ivpcell#20gpdk090	L=1e-07	W=2.4e-07
+ AD=6.72001e-14	AS=1.44001e-14	PD=1.04e-06	PS=3.6e-07	simW=2.4e-07 fw=2.4e-07
MI15/I31/avD1_1	I15/avC34#6	avC90#52	gnd!#677	gnd!#5
+ nmos1v#20ivpcell#20gpdk090	L=1e-07	W=1.2e-07
+ AD=4.08001e-14	AS=6.96001e-14	PD=6.8e-07	PS=1.16e-06	simW=1.2e-07 fw=1.2e-07
MI15/I31/avD1_2	gnd!#671	avC91#43	I15/avC34#6	gnd!#5
+ nmos1v#20ivpcell#20gpdk090	L=1e-07	W=1.2e-07
+ AD=6.96001e-14	AS=4.08001e-14	PD=1.16e-06	PS=6.8e-07	simW=1.2e-07 fw=1.2e-07
MI15/I29/avD1_1	I15/avC33#6	avC34#55	gnd!#696	gnd!#5
+ nmos1v#20ivpcell#20gpdk090	L=1e-07	W=1.2e-07
+ AD=4.08001e-14	AS=6.96001e-14	PD=6.8e-07	PS=1.16e-06	simW=1.2e-07 fw=1.2e-07
MI15/I29/avD1_2	gnd!#690	avC80#57	I15/avC33#6	gnd!#5
+ nmos1v#20ivpcell#20gpdk090	L=1e-07	W=1.2e-07
+ AD=6.96001e-14	AS=4.08001e-14	PD=1.16e-06	PS=6.8e-07	simW=1.2e-07 fw=1.2e-07
MI15/I28/avD1_1	I15/avC32#6	avC40#61	gnd!#712	gnd!#5
+ nmos1v#20ivpcell#20gpdk090	L=1e-07	W=1.2e-07
+ AD=4.08001e-14	AS=6.96001e-14	PD=6.8e-07	PS=1.16e-06	simW=1.2e-07 fw=1.2e-07
MI15/I28/avD1_2	gnd!#709	avC74#59	I15/avC32#6	gnd!#5
+ nmos1v#20ivpcell#20gpdk090	L=1e-07	W=1.2e-07
+ AD=6.96001e-14	AS=4.08001e-14	PD=1.16e-06	PS=6.8e-07	simW=1.2e-07 fw=1.2e-07
MI15/I25/avD1_1	I15/avC31#6	avC49#61	gnd!#731	gnd!#5
+ nmos1v#20ivpcell#20gpdk090	L=1e-07	W=1.2e-07
+ AD=4.08001e-14	AS=6.96001e-14	PD=6.8e-07	PS=1.16e-06	simW=1.2e-07 fw=1.2e-07
MI15/I25/avD1_2	gnd!#728	avC70#64	I15/avC31#6	gnd!#5
+ nmos1v#20ivpcell#20gpdk090	L=1e-07	W=1.2e-07
+ AD=6.96001e-14	AS=4.08001e-14	PD=1.16e-06	PS=6.8e-07	simW=1.2e-07 fw=1.2e-07
MI15/I24/avD1_1	I15/avC30#6	avC59#47	gnd!#750	gnd!#5
+ nmos1v#20ivpcell#20gpdk090	L=1e-07	W=1.2e-07
+ AD=4.08001e-14	AS=6.96001e-14	PD=6.8e-07	PS=1.16e-06	simW=1.2e-07 fw=1.2e-07
MI15/I24/avD1_2	gnd!#747	avC61#39	I15/avC30#6	gnd!#5
+ nmos1v#20ivpcell#20gpdk090	L=1e-07	W=1.2e-07
+ AD=6.96001e-14	AS=4.08001e-14	PD=1.16e-06	PS=6.8e-07	simW=1.2e-07 fw=1.2e-07
MI15/I21/avD1_1	I15/avC29#6	avC56#50	gnd!#769	gnd!#5
+ nmos1v#20ivpcell#20gpdk090	L=1e-07	W=1.2e-07
+ AD=4.08001e-14	AS=6.96001e-14	PD=6.8e-07	PS=1.16e-06	simW=1.2e-07 fw=1.2e-07
MI15/I21/avD1_2	gnd!#762	avC53#39	I15/avC29#6	gnd!#5
+ nmos1v#20ivpcell#20gpdk090	L=1e-07	W=1.2e-07
+ AD=6.96001e-14	AS=4.08001e-14	PD=1.16e-06	PS=6.8e-07	simW=1.2e-07 fw=1.2e-07
MI15/I20/avD1_1	I15/avC28#6	avC39#47	gnd!#788	gnd!#5
+ nmos1v#20ivpcell#20gpdk090	L=1e-07	W=1.2e-07
+ AD=4.08001e-14	AS=6.96001e-14	PD=6.8e-07	PS=1.16e-06	simW=1.2e-07 fw=1.2e-07
MI15/I20/avD1_2	gnd!#781	avC44#39	I15/avC28#6	gnd!#5
+ nmos1v#20ivpcell#20gpdk090	L=1e-07	W=1.2e-07
+ AD=6.96001e-14	AS=4.08001e-14	PD=1.16e-06	PS=6.8e-07	simW=1.2e-07 fw=1.2e-07
MI15/I17/avD1_1	I15/avC27#6	avC33#50	gnd!#803	gnd!#5
+ nmos1v#20ivpcell#20gpdk090	L=1e-07	W=1.2e-07
+ AD=4.08001e-14	AS=6.96001e-14	PD=6.8e-07	PS=1.16e-06	simW=1.2e-07 fw=1.2e-07
MI15/I17/avD1_2	gnd!#800	avC37#40	I15/avC27#6	gnd!#5
+ nmos1v#20ivpcell#20gpdk090	L=1e-07	W=1.2e-07
+ AD=6.96001e-14	AS=4.08001e-14	PD=1.16e-06	PS=6.8e-07	simW=1.2e-07 fw=1.2e-07
MI15/I32/avD1_1	avC38#12	I15/avC34#14	gnd!#668	gnd!#5
+ nmos1v#20ivpcell#20gpdk090	L=1e-07	W=1.2e-07
+ AD=6.96001e-14	AS=6.96001e-14	PD=1.16e-06	PS=1.16e-06	simW=1.2e-07 fw=1.2e-07
MI15/I30/avD1_1	avC43#9	I15/avC33#14	gnd!#683	gnd!#5
+ nmos1v#20ivpcell#20gpdk090	L=1e-07	W=1.2e-07
+ AD=6.96001e-14	AS=6.96001e-14	PD=1.16e-06	PS=1.16e-06	simW=1.2e-07 fw=1.2e-07
MI15/I27/avD1_1	avC45#9	I15/avC32#13	gnd!#702	gnd!#5
+ nmos1v#20ivpcell#20gpdk090	L=1e-07	W=1.2e-07
+ AD=6.96001e-14	AS=6.96001e-14	PD=1.16e-06	PS=1.16e-06	simW=1.2e-07 fw=1.2e-07
MI15/I26/avD1_1	avC50#12	I15/avC31#14	gnd!#721	gnd!#5
+ nmos1v#20ivpcell#20gpdk090	L=1e-07	W=1.2e-07
+ AD=6.96001e-14	AS=6.96001e-14	PD=1.16e-06	PS=1.16e-06	simW=1.2e-07 fw=1.2e-07
MI15/I23/avD1_1	avC54#14	I15/avC30#13	gnd!#737	gnd!#5
+ nmos1v#20ivpcell#20gpdk090	L=1e-07	W=1.2e-07
+ AD=6.96001e-14	AS=6.96001e-14	PD=1.16e-06	PS=1.16e-06	simW=1.2e-07 fw=1.2e-07
MI15/I22/avD1_1	avC58#12	I15/avC29#13	gnd!#756	gnd!#5
+ nmos1v#20ivpcell#20gpdk090	L=1e-07	W=1.2e-07
+ AD=6.96001e-14	AS=6.96001e-14	PD=1.16e-06	PS=1.16e-06	simW=1.2e-07 fw=1.2e-07
MI15/I19/avD1_1	avC63#12	I15/avC28#13	gnd!#775	gnd!#5
+ nmos1v#20ivpcell#20gpdk090	L=1e-07	W=1.2e-07
+ AD=6.96001e-14	AS=6.96001e-14	PD=1.16e-06	PS=1.16e-06	simW=1.2e-07 fw=1.2e-07
MI15/I18/avD1_1	avC66#9	I15/avC27#11	gnd!#794	gnd!#5
+ nmos1v#20ivpcell#20gpdk090	L=1e-07	W=1.2e-07
+ AD=6.96001e-14	AS=6.96001e-14	PD=1.16e-06	PS=1.16e-06	simW=1.2e-07 fw=1.2e-07
MI16/I7/avD1_1	avC88#17	avC90#39	gnd!#226	gnd!#5
+ nmos1v#20ivpcell#20gpdk090	L=1e-07	W=1.2e-07
+ AD=6.96001e-14	AS=6.96001e-14	PD=1.16e-06	PS=1.16e-06	simW=1.2e-07 fw=1.2e-07
MI16/I6/avD1_1	avC93#17	avC34#69	gnd!#223	gnd!#5
+ nmos1v#20ivpcell#20gpdk090	L=1e-07	W=1.2e-07
+ AD=6.96001e-14	AS=6.96001e-14	PD=1.16e-06	PS=1.16e-06	simW=1.2e-07 fw=1.2e-07
MI16/I5/avD1_1	avC96#14	avC40#75	gnd!#220	gnd!#5
+ nmos1v#20ivpcell#20gpdk090	L=1e-07	W=1.2e-07
+ AD=6.96001e-14	AS=6.96001e-14	PD=1.16e-06	PS=1.16e-06	simW=1.2e-07 fw=1.2e-07
MI16/I4/avD1_1	avC98#14	avC49#66	gnd!#217	gnd!#5
+ nmos1v#20ivpcell#20gpdk090	L=1e-07	W=1.2e-07
+ AD=6.96001e-14	AS=6.96001e-14	PD=1.16e-06	PS=1.16e-06	simW=1.2e-07 fw=1.2e-07
MI16/I3/avD1_1	avC99#14	avC59#70	gnd!#214	gnd!#5
+ nmos1v#20ivpcell#20gpdk090	L=1e-07	W=1.2e-07
+ AD=6.96001e-14	AS=6.96001e-14	PD=1.16e-06	PS=1.16e-06	simW=1.2e-07 fw=1.2e-07
MI16/I2/avD1_1	avC100#14	avC56#70	gnd!#211	gnd!#5
+ nmos1v#20ivpcell#20gpdk090	L=1e-07	W=1.2e-07
+ AD=6.96001e-14	AS=6.96001e-14	PD=1.16e-06	PS=1.16e-06	simW=1.2e-07 fw=1.2e-07
MI16/I0/avD1_1	avC101#18	avC39#67	gnd!#208	gnd!#5
+ nmos1v#20ivpcell#20gpdk090	L=1e-07	W=1.2e-07
+ AD=6.96001e-14	AS=6.96001e-14	PD=1.16e-06	PS=1.16e-06	simW=1.2e-07 fw=1.2e-07
MI16/I1/avD1_1	avC102#18	avC33#71	gnd!#205	gnd!#5
+ nmos1v#20ivpcell#20gpdk090	L=1e-07	W=1.2e-07
+ AD=6.96001e-14	AS=6.96001e-14	PD=1.16e-06	PS=1.16e-06	simW=1.2e-07 fw=1.2e-07
MI9/I13/avD1_1	I9/I13/avC8	FN0#23	I9/avC25#19	gnd!#5
+ nmos1v#20ivpcell#20gpdk090	L=1e-07	W=4.8e-07
+ AD=2.88001e-14	AS=1.344e-13	PD=6e-07	PS=1.52e-06	simW=4.8e-07 fw=4.8e-07
MI9/I13/avD1_2	I9/I13/avC9	FN1#25	I9/I13/avC8	gnd!#5
+ nmos1v#20ivpcell#20gpdk090	L=1e-07	W=4.8e-07
+ AD=2.88001e-14	AS=2.88001e-14	PD=6e-07	PS=6e-07	simW=4.8e-07 fw=4.8e-07
MI9/I13/avD1_3	I9/I13/avC10	FN2#27	I9/I13/avC9	gnd!#5
+ nmos1v#20ivpcell#20gpdk090	L=1e-07	W=4.8e-07
+ AD=2.88001e-14	AS=2.88001e-14	PD=6e-07	PS=6e-07	simW=4.8e-07 fw=4.8e-07
MI9/I13/avD1_4	gnd!#446	avC105#46	I9/I13/avC10	gnd!#5
+ nmos1v#20ivpcell#20gpdk090	L=1e-07	W=4.8e-07
+ AD=1.344e-13	AS=2.88001e-14	PD=1.52e-06	PS=6e-07	simW=4.8e-07 fw=4.8e-07
MI9/I12/avD1_1	I9/I12/avC8	FN0#18	I9/avC24#16	gnd!#5
+ nmos1v#20ivpcell#20gpdk090	L=1e-07	W=4.8e-07
+ AD=2.88001e-14	AS=1.344e-13	PD=6e-07	PS=1.52e-06	simW=4.8e-07 fw=4.8e-07
MI9/I12/avD1_2	I9/I12/avC9	FN1#19	I9/I12/avC8	gnd!#5
+ nmos1v#20ivpcell#20gpdk090	L=1e-07	W=4.8e-07
+ AD=2.88001e-14	AS=2.88001e-14	PD=6e-07	PS=6e-07	simW=4.8e-07 fw=4.8e-07
MI9/I12/avD1_3	I9/I12/avC10	I9/avC17#30	I9/I12/avC9	gnd!#5
+ nmos1v#20ivpcell#20gpdk090	L=1e-07	W=4.8e-07
+ AD=2.88001e-14	AS=2.88001e-14	PD=6e-07	PS=6e-07	simW=4.8e-07 fw=4.8e-07
MI9/I12/avD1_4	gnd!#466	avC105#40	I9/I12/avC10	gnd!#5
+ nmos1v#20ivpcell#20gpdk090	L=1e-07	W=4.8e-07
+ AD=1.344e-13	AS=2.88001e-14	PD=1.52e-06	PS=6e-07	simW=4.8e-07 fw=4.8e-07
MI9/I11/avD1_1	I9/I11/avC8	FN0#13	I9/avC23#8	gnd!#5
+ nmos1v#20ivpcell#20gpdk090	L=1e-07	W=4.8e-07
+ AD=2.88001e-14	AS=1.344e-13	PD=6e-07	PS=1.52e-06	simW=4.8e-07 fw=4.8e-07
MI9/I11/avD1_2	I9/I11/avC9	I9/avC16#29	I9/I11/avC8	gnd!#5
+ nmos1v#20ivpcell#20gpdk090	L=1e-07	W=4.8e-07
+ AD=2.88001e-14	AS=2.88001e-14	PD=6e-07	PS=6e-07	simW=4.8e-07 fw=4.8e-07
MI9/I11/avD1_3	I9/I11/avC10	FN2#21	I9/I11/avC9	gnd!#5
+ nmos1v#20ivpcell#20gpdk090	L=1e-07	W=4.8e-07
+ AD=2.88001e-14	AS=2.88001e-14	PD=6e-07	PS=6e-07	simW=4.8e-07 fw=4.8e-07
MI9/I11/avD1_4	gnd!#483	avC105#37	I9/I11/avC10	gnd!#5
+ nmos1v#20ivpcell#20gpdk090	L=1e-07	W=4.8e-07
+ AD=1.344e-13	AS=2.88001e-14	PD=1.52e-06	PS=6e-07	simW=4.8e-07 fw=4.8e-07
MI9/I10/avD1_1	I9/I10/avC8	FN0#8	I9/avC22#8	gnd!#5
+ nmos1v#20ivpcell#20gpdk090	L=1e-07	W=4.8e-07
+ AD=2.88001e-14	AS=1.344e-13	PD=6e-07	PS=1.52e-06	simW=4.8e-07 fw=4.8e-07
MI9/I10/avD1_2	I9/I10/avC9	I9/avC16#23	I9/I10/avC8	gnd!#5
+ nmos1v#20ivpcell#20gpdk090	L=1e-07	W=4.8e-07
+ AD=2.88001e-14	AS=2.88001e-14	PD=6e-07	PS=6e-07	simW=4.8e-07 fw=4.8e-07
MI9/I10/avD1_3	I9/I10/avC10	I9/avC17#23	I9/I10/avC9	gnd!#5
+ nmos1v#20ivpcell#20gpdk090	L=1e-07	W=4.8e-07
+ AD=2.88001e-14	AS=2.88001e-14	PD=6e-07	PS=6e-07	simW=4.8e-07 fw=4.8e-07
MI9/I10/avD1_4	gnd!#502	avC105#31	I9/I10/avC10	gnd!#5
+ nmos1v#20ivpcell#20gpdk090	L=1e-07	W=4.8e-07
+ AD=1.344e-13	AS=2.88001e-14	PD=1.52e-06	PS=6e-07	simW=4.8e-07 fw=4.8e-07
MI9/I9/avD1_1	I9/I9/avC8	I9/avC15#26	I9/avC21#8	gnd!#5
+ nmos1v#20ivpcell#20gpdk090	L=1e-07	W=4.8e-07
+ AD=2.88001e-14	AS=1.344e-13	PD=6e-07	PS=1.52e-06	simW=4.8e-07 fw=4.8e-07
MI9/I9/avD1_2	I9/I9/avC9	FN1#13	I9/I9/avC8	gnd!#5
+ nmos1v#20ivpcell#20gpdk090	L=1e-07	W=4.8e-07
+ AD=2.88001e-14	AS=2.88001e-14	PD=6e-07	PS=6e-07	simW=4.8e-07 fw=4.8e-07
MI9/I9/avD1_3	I9/I9/avC10	FN2#15	I9/I9/avC9	gnd!#5
+ nmos1v#20ivpcell#20gpdk090	L=1e-07	W=4.8e-07
+ AD=2.88001e-14	AS=2.88001e-14	PD=6e-07	PS=6e-07	simW=4.8e-07 fw=4.8e-07
MI9/I9/avD1_4	gnd!#526	avC105#25	I9/I9/avC10	gnd!#5
+ nmos1v#20ivpcell#20gpdk090	L=1e-07	W=4.8e-07
+ AD=1.344e-13	AS=2.88001e-14	PD=1.52e-06	PS=6e-07	simW=4.8e-07 fw=4.8e-07
MI9/I8/avD1_1	I9/I8/avC8	I9/avC15#21	I9/avC20#8	gnd!#5
+ nmos1v#20ivpcell#20gpdk090	L=1e-07	W=4.8e-07
+ AD=2.88001e-14	AS=1.344e-13	PD=6e-07	PS=1.52e-06	simW=4.8e-07 fw=4.8e-07
MI9/I8/avD1_2	I9/I8/avC9	FN1#7	I9/I8/avC8	gnd!#5
+ nmos1v#20ivpcell#20gpdk090	L=1e-07	W=4.8e-07
+ AD=2.88001e-14	AS=2.88001e-14	PD=6e-07	PS=6e-07	simW=4.8e-07 fw=4.8e-07
MI9/I8/avD1_3	I9/I8/avC10	I9/avC17#17	I9/I8/avC9	gnd!#5
+ nmos1v#20ivpcell#20gpdk090	L=1e-07	W=4.8e-07
+ AD=2.88001e-14	AS=2.88001e-14	PD=6e-07	PS=6e-07	simW=4.8e-07 fw=4.8e-07
MI9/I8/avD1_4	gnd!#545	avC105#19	I9/I8/avC10	gnd!#5
+ nmos1v#20ivpcell#20gpdk090	L=1e-07	W=4.8e-07
+ AD=1.344e-13	AS=2.88001e-14	PD=1.52e-06	PS=6e-07	simW=4.8e-07 fw=4.8e-07
MI9/I7/avD1_1	I9/I7/avC8	I9/avC15#16	I9/avC19#9	gnd!#5
+ nmos1v#20ivpcell#20gpdk090	L=1e-07	W=4.8e-07
+ AD=2.88001e-14	AS=1.344e-13	PD=6e-07	PS=1.52e-06	simW=4.8e-07 fw=4.8e-07
MI9/I7/avD1_2	I9/I7/avC9	I9/avC16#17	I9/I7/avC8	gnd!#5
+ nmos1v#20ivpcell#20gpdk090	L=1e-07	W=4.8e-07
+ AD=2.88001e-14	AS=2.88001e-14	PD=6e-07	PS=6e-07	simW=4.8e-07 fw=4.8e-07
MI9/I7/avD1_3	I9/I7/avC10	FN2#9	I9/I7/avC9	gnd!#5
+ nmos1v#20ivpcell#20gpdk090	L=1e-07	W=4.8e-07
+ AD=2.88001e-14	AS=2.88001e-14	PD=6e-07	PS=6e-07	simW=4.8e-07 fw=4.8e-07
MI9/I7/avD1_4	gnd!#564	avC105#10	I9/I7/avC10	gnd!#5
+ nmos1v#20ivpcell#20gpdk090	L=1e-07	W=4.8e-07
+ AD=1.344e-13	AS=2.88001e-14	PD=1.52e-06	PS=6e-07	simW=4.8e-07 fw=4.8e-07
MI9/I6/avD1_1	I9/I6/avC8	I9/avC15#11	I9/avC18#9	gnd!#5
+ nmos1v#20ivpcell#20gpdk090	L=1e-07	W=4.8e-07
+ AD=2.88001e-14	AS=1.344e-13	PD=6e-07	PS=1.52e-06	simW=4.8e-07 fw=4.8e-07
MI9/I6/avD1_2	I9/I6/avC9	I9/avC16#11	I9/I6/avC8	gnd!#5
+ nmos1v#20ivpcell#20gpdk090	L=1e-07	W=4.8e-07
+ AD=2.88001e-14	AS=2.88001e-14	PD=6e-07	PS=6e-07	simW=4.8e-07 fw=4.8e-07
MI9/I6/avD1_3	I9/I6/avC10	I9/avC17#11	I9/I6/avC9	gnd!#5
+ nmos1v#20ivpcell#20gpdk090	L=1e-07	W=4.8e-07
+ AD=2.88001e-14	AS=2.88001e-14	PD=6e-07	PS=6e-07	simW=4.8e-07 fw=4.8e-07
MI9/I6/avD1_4	gnd!#584	avC105#4	I9/I6/avC10	gnd!#5
+ nmos1v#20ivpcell#20gpdk090	L=1e-07	W=4.8e-07
+ AD=1.344e-13	AS=2.88001e-14	PD=1.52e-06	PS=6e-07	simW=4.8e-07 fw=4.8e-07
MI9/I21/avD1_1	I9/avC14#5	I9/avC25#3	gnd!#437	gnd!#5
+ nmos1v#20ivpcell#20gpdk090	L=1e-07	W=1.2e-07
+ AD=6.96001e-14	AS=6.96001e-14	PD=1.16e-06	PS=1.16e-06	simW=1.2e-07 fw=1.2e-07
MI9/I20/avD1_1	I9/avC13#6	I9/avC24#21	gnd!#456	gnd!#5
+ nmos1v#20ivpcell#20gpdk090	L=1e-07	W=1.2e-07
+ AD=6.96001e-14	AS=6.96001e-14	PD=1.16e-06	PS=1.16e-06	simW=1.2e-07 fw=1.2e-07
MI9/I19/avD1_1	avC67#7	I9/avC23#20	gnd!#474	gnd!#5
+ nmos1v#20ivpcell#20gpdk090	L=1e-07	W=1.2e-07
+ AD=6.96001e-14	AS=6.96001e-14	PD=1.16e-06	PS=1.16e-06	simW=1.2e-07 fw=1.2e-07
MI9/I18/avD1_1	avC62#4	I9/avC22#20	gnd!#492	gnd!#5
+ nmos1v#20ivpcell#20gpdk090	L=1e-07	W=1.2e-07
+ AD=6.96001e-14	AS=6.96001e-14	PD=1.16e-06	PS=1.16e-06	simW=1.2e-07 fw=1.2e-07
MI9/I17/avD1_1	avC57#55	I9/avC21#22	gnd!#516	gnd!#5
+ nmos1v#20ivpcell#20gpdk090	L=1e-07	W=1.2e-07
+ AD=6.96001e-14	AS=6.96001e-14	PD=1.16e-06	PS=1.16e-06	simW=1.2e-07 fw=1.2e-07
MI9/I16/avD1_1	avC52#4	I9/avC20#20	gnd!#536	gnd!#5
+ nmos1v#20ivpcell#20gpdk090	L=1e-07	W=1.2e-07
+ AD=6.96001e-14	AS=6.96001e-14	PD=1.16e-06	PS=1.16e-06	simW=1.2e-07 fw=1.2e-07
MI9/I15/avD1_1	avC46#29	I9/avC19#23	gnd!#555	gnd!#5
+ nmos1v#20ivpcell#20gpdk090	L=1e-07	W=1.2e-07
+ AD=6.96001e-14	AS=6.96001e-14	PD=1.16e-06	PS=1.16e-06	simW=1.2e-07 fw=1.2e-07
MI9/I14/avD1_1	avC42#4	I9/avC18#22	gnd!#574	gnd!#5
+ nmos1v#20ivpcell#20gpdk090	L=1e-07	W=1.2e-07
+ AD=6.96001e-14	AS=6.96001e-14	PD=1.16e-06	PS=1.16e-06	simW=1.2e-07 fw=1.2e-07
MI9/I4/avD1_1	I9/avC17#3	FN2#3	gnd!#593	gnd!#5
+ nmos1v#20ivpcell#20gpdk090	L=1e-07	W=1.2e-07
+ AD=6.96001e-14	AS=6.96001e-14	PD=1.16e-06	PS=1.16e-06	simW=1.2e-07 fw=1.2e-07
MI9/I3/avD1_1	I9/avC16#3	FN1#3	gnd!#602	gnd!#5
+ nmos1v#20ivpcell#20gpdk090	L=1e-07	W=1.2e-07
+ AD=6.96001e-14	AS=6.96001e-14	PD=1.16e-06	PS=1.16e-06	simW=1.2e-07 fw=1.2e-07
MI9/I0/avD1_1	I9/avC15#3	FN0#5	gnd!#608	gnd!#5
+ nmos1v#20ivpcell#20gpdk090	L=1e-07	W=1.2e-07
+ AD=6.96001e-14	AS=6.96001e-14	PD=1.16e-06	PS=1.16e-06	simW=1.2e-07 fw=1.2e-07
MI5/I7/avD1_1	I5/I7/avC6	avC90#21	I5/avC34	gnd!#5
+ nmos1v#20ivpcell#20gpdk090	L=1e-07	W=4.8e-07
+ AD=2.88001e-14	AS=1.344e-13	PD=6e-07	PS=1.52e-06	simW=4.8e-07 fw=4.8e-07
MI5/I7/avD1_2	gnd!#346	avC91#6	I5/I7/avC6	gnd!#5
+ nmos1v#20ivpcell#20gpdk090	L=1e-07	W=4.8e-07
+ AD=1.344e-13	AS=2.88001e-14	PD=1.52e-06	PS=6e-07	simW=4.8e-07 fw=4.8e-07
MI5/I6/avD1_1	I5/I6/avC6	avC34#18	I5/avC33	gnd!#5
+ nmos1v#20ivpcell#20gpdk090	L=1e-07	W=4.8e-07
+ AD=2.88001e-14	AS=1.344e-13	PD=6e-07	PS=1.52e-06	simW=4.8e-07 fw=4.8e-07
MI5/I6/avD1_2	gnd!#355	avC80#18	I5/I6/avC6	gnd!#5
+ nmos1v#20ivpcell#20gpdk090	L=1e-07	W=4.8e-07
+ AD=1.344e-13	AS=2.88001e-14	PD=1.52e-06	PS=6e-07	simW=4.8e-07 fw=4.8e-07
MI5/I5/avD1_1	I5/I5/avC6	avC40#24	I5/avC32#6	gnd!#5
+ nmos1v#20ivpcell#20gpdk090	L=1e-07	W=4.8e-07
+ AD=2.88001e-14	AS=1.344e-13	PD=6e-07	PS=1.52e-06	simW=4.8e-07 fw=4.8e-07
MI5/I5/avD1_2	gnd!#368	avC74#18	I5/I5/avC6	gnd!#5
+ nmos1v#20ivpcell#20gpdk090	L=1e-07	W=4.8e-07
+ AD=1.344e-13	AS=2.88001e-14	PD=1.52e-06	PS=6e-07	simW=4.8e-07 fw=4.8e-07
MI5/I4/avD1_1	I5/I4/avC6	avC49#18	I5/avC31	gnd!#5
+ nmos1v#20ivpcell#20gpdk090	L=1e-07	W=4.8e-07
+ AD=2.88001e-14	AS=1.344e-13	PD=6e-07	PS=1.52e-06	simW=4.8e-07 fw=4.8e-07
MI5/I4/avD1_2	gnd!#381	avC70#18	I5/I4/avC6	gnd!#5
+ nmos1v#20ivpcell#20gpdk090	L=1e-07	W=4.8e-07
+ AD=1.344e-13	AS=2.88001e-14	PD=1.52e-06	PS=6e-07	simW=4.8e-07 fw=4.8e-07
MI5/I3/avD1_1	I5/I3/avC6	avC59#43	I5/avC30	gnd!#5
+ nmos1v#20ivpcell#20gpdk090	L=1e-07	W=4.8e-07
+ AD=2.88001e-14	AS=1.344e-13	PD=6e-07	PS=1.52e-06	simW=4.8e-07 fw=4.8e-07
MI5/I3/avD1_2	gnd!#390	avC61#32	I5/I3/avC6	gnd!#5
+ nmos1v#20ivpcell#20gpdk090	L=1e-07	W=4.8e-07
+ AD=1.344e-13	AS=2.88001e-14	PD=1.52e-06	PS=6e-07	simW=4.8e-07 fw=4.8e-07
MI5/I2/avD1_1	I5/I2/avC6	avC56#39	I5/avC29#6	gnd!#5
+ nmos1v#20ivpcell#20gpdk090	L=1e-07	W=4.8e-07
+ AD=2.88001e-14	AS=1.344e-13	PD=6e-07	PS=1.52e-06	simW=4.8e-07 fw=4.8e-07
MI5/I2/avD1_2	gnd!#404	avC53#32	I5/I2/avC6	gnd!#5
+ nmos1v#20ivpcell#20gpdk090	L=1e-07	W=4.8e-07
+ AD=1.344e-13	AS=2.88001e-14	PD=1.52e-06	PS=6e-07	simW=4.8e-07 fw=4.8e-07
MI5/I1/avD1_1	I5/I1/avC6	avC39#26	I5/avC28	gnd!#5
+ nmos1v#20ivpcell#20gpdk090	L=1e-07	W=4.8e-07
+ AD=2.88001e-14	AS=1.344e-13	PD=6e-07	PS=1.52e-06	simW=4.8e-07 fw=4.8e-07
MI5/I1/avD1_2	gnd!#413	avC44#32	I5/I1/avC6	gnd!#5
+ nmos1v#20ivpcell#20gpdk090	L=1e-07	W=4.8e-07
+ AD=1.344e-13	AS=2.88001e-14	PD=1.52e-06	PS=6e-07	simW=4.8e-07 fw=4.8e-07
MI5/I0/avD1_1	I5/I0/avC6	avC33#26	I5/avC27	gnd!#5
+ nmos1v#20ivpcell#20gpdk090	L=1e-07	W=4.8e-07
+ AD=2.88001e-14	AS=1.344e-13	PD=6e-07	PS=1.52e-06	simW=4.8e-07 fw=4.8e-07
MI5/I0/avD1_2	gnd!#428	avC37#33	I5/I0/avC6	gnd!#5
+ nmos1v#20ivpcell#20gpdk090	L=1e-07	W=4.8e-07
+ AD=1.344e-13	AS=2.88001e-14	PD=1.52e-06	PS=6e-07	simW=4.8e-07 fw=4.8e-07
MI5/I16/avD1_1	avC94	I5/avC34#12	gnd!#339	gnd!#5
+ nmos1v#20ivpcell#20gpdk090	L=1e-07	W=1.2e-07
+ AD=6.96001e-14	AS=6.96001e-14	PD=1.16e-06	PS=1.16e-06	simW=1.2e-07 fw=1.2e-07
MI5/I15/avD1_1	avC89#4	I5/avC33#12	gnd!#352	gnd!#5
+ nmos1v#20ivpcell#20gpdk090	L=1e-07	W=1.2e-07
+ AD=6.96001e-14	AS=6.96001e-14	PD=1.16e-06	PS=1.16e-06	simW=1.2e-07 fw=1.2e-07
MI5/I14/avD1_1	avC87	I5/avC32#14	gnd!#362	gnd!#5
+ nmos1v#20ivpcell#20gpdk090	L=1e-07	W=1.2e-07
+ AD=6.96001e-14	AS=6.96001e-14	PD=1.16e-06	PS=1.16e-06	simW=1.2e-07 fw=1.2e-07
MI5/I13/avD1_1	avC85	I5/avC31#14	gnd!#375	gnd!#5
+ nmos1v#20ivpcell#20gpdk090	L=1e-07	W=1.2e-07
+ AD=6.96001e-14	AS=6.96001e-14	PD=1.16e-06	PS=1.16e-06	simW=1.2e-07 fw=1.2e-07
MI5/I12/avD1_1	avC82#4	I5/avC30#12	gnd!#384	gnd!#5
+ nmos1v#20ivpcell#20gpdk090	L=1e-07	W=1.2e-07
+ AD=6.96001e-14	AS=6.96001e-14	PD=1.16e-06	PS=1.16e-06	simW=1.2e-07 fw=1.2e-07
MI5/I11/avD1_1	avC79	I5/avC29#12	gnd!#397	gnd!#5
+ nmos1v#20ivpcell#20gpdk090	L=1e-07	W=1.2e-07
+ AD=6.96001e-14	AS=6.96001e-14	PD=1.16e-06	PS=1.16e-06	simW=1.2e-07 fw=1.2e-07
MI5/I10/avD1_1	avC77	I5/avC28#14	gnd!#410	gnd!#5
+ nmos1v#20ivpcell#20gpdk090	L=1e-07	W=1.2e-07
+ AD=6.96001e-14	AS=6.96001e-14	PD=1.16e-06	PS=1.16e-06	simW=1.2e-07 fw=1.2e-07
MI5/I9/avD1_1	avC75#3	I5/avC27#12	gnd!#420	gnd!#5
+ nmos1v#20ivpcell#20gpdk090	L=1e-07	W=1.2e-07
+ AD=6.96001e-14	AS=6.96001e-14	PD=1.16e-06	PS=1.16e-06	simW=1.2e-07 fw=1.2e-07
MI4/I7/avD1_1	gnd!#1123	avC107#29	I4/I7/avC16	gnd!#5
+ nmos1v#20ivpcell#20gpdk090	L=1e-07	W=1.2e-07
+ AD=4.08001e-14	AS=7.20006e-15	PD=6.8e-07	PS=2.4e-07	simW=1.2e-07 fw=1.2e-07
MI4/I7/avD1_2	I4/I7/avC10#5	I4/avC43#13	gnd!#1123	gnd!#5
+ nmos1v#20ivpcell#20gpdk090	L=1e-07	W=1.2e-07
+ AD=4.08001e-14	AS=4.08001e-14	PD=6.8e-07	PS=6.8e-07	simW=1.2e-07 fw=1.2e-07
MI4/I7/avD1_3	gnd!#1120	avC107#30	I4/I7/avC10#5	gnd!#5
+ nmos1v#20ivpcell#20gpdk090	L=1e-07	W=1.2e-07
+ AD=6.96001e-14	AS=4.08001e-14	PD=1.16e-06	PS=6.8e-07	simW=1.2e-07 fw=1.2e-07
MI4/I7/avD1_4	gnd!#1091	I4/I7/avC11#14	avC103#13	gnd!#5
+ nmos1v#20ivpcell#20gpdk090	L=1e-07	W=1.2e-07
+ AD=4.08001e-14	AS=6.96001e-14	PD=6.8e-07	PS=1.16e-06	simW=1.2e-07 fw=1.2e-07
MI4/I7/avD1_5	avC92#12	I4/I7/avC12#10	gnd!#1091	gnd!#5
+ nmos1v#20ivpcell#20gpdk090	L=1e-07	W=1.2e-07
+ AD=6.96001e-14	AS=4.08001e-14	PD=1.16e-06	PS=6.8e-07	simW=1.2e-07 fw=1.2e-07
MI4/I7/avD1_6	I4/I7/avC16	I4/avC43#17	I4/I7/avC15	gnd!#5
+ nmos1v#20ivpcell#20gpdk090	L=1e-07	W=1.2e-07
+ AD=7.20006e-15	AS=7.20006e-15	PD=2.4e-07	PS=2.4e-07	simW=1.2e-07 fw=1.2e-07
MI4/I7/avD1_7	gnd!#1129	I4/avC43#21	I4/I7/avC8#4	gnd!#5
+ nmos1v#20ivpcell#20gpdk090	L=1e-07	W=4.8e-07
+ AD=7.68e-14	AS=1.344e-13	PD=8e-07	PS=1.52e-06	simW=4.8e-07 fw=4.8e-07
MI4/I7/avD1_8	I4/I7/avC8	avC90#73	gnd!#1129	gnd!#5
+ nmos1v#20ivpcell#20gpdk090	L=1e-07	W=4.8e-07
+ AD=7.68e-14	AS=7.68e-14	PD=8e-07	PS=8e-07	simW=4.8e-07 fw=4.8e-07
MI4/I7/avD1_9	I4/I7/avC11#8	avC107#15	I4/I7/avC8	gnd!#5
+ nmos1v#20ivpcell#20gpdk090	L=1e-07	W=4.8e-07
+ AD=7.32001e-14	AS=7.68e-14	PD=8.6e-07	PS=8e-07	simW=4.8e-07 fw=4.8e-07
MI4/I7/avD1_10	I4/I7/avC14	avC90#71	I4/I7/avC11#8	gnd!#5
+ nmos1v#20ivpcell#20gpdk090	L=1e-07	W=1.2e-07
+ AD=7.20006e-15	AS=7.32001e-14	PD=2.4e-07	PS=8.6e-07	simW=1.2e-07 fw=1.2e-07
MI4/I7/avD1_11	gnd!#1126	I4/avC43#19	I4/I7/avC14	gnd!#5
+ nmos1v#20ivpcell#20gpdk090	L=1e-07	W=1.2e-07
+ AD=4.08001e-14	AS=7.20006e-15	PD=6.8e-07	PS=2.4e-07	simW=1.2e-07 fw=1.2e-07
MI4/I7/avD1_12	I4/I7/avC10	avC90#69	gnd!#1126	gnd!#5
+ nmos1v#20ivpcell#20gpdk090	L=1e-07	W=1.2e-07
+ AD=4.08001e-14	AS=4.08001e-14	PD=6.8e-07	PS=6.8e-07	simW=1.2e-07 fw=1.2e-07
MI4/I7/avD1_13	I4/I7/avC12#4	I4/I7/avC11#11	I4/I7/avC10	gnd!#5
+ nmos1v#20ivpcell#20gpdk090	L=1e-07	W=1.2e-07
+ AD=4.08001e-14	AS=4.08001e-14	PD=6.8e-07	PS=6.8e-07	simW=1.2e-07 fw=1.2e-07
MI4/I7/avD1_14	I4/I7/avC15	avC90#67	I4/I7/avC12#4	gnd!#5
+ nmos1v#20ivpcell#20gpdk090	L=1e-07	W=1.2e-07
+ AD=7.20006e-15	AS=4.08001e-14	PD=2.4e-07	PS=6.8e-07	simW=1.2e-07 fw=1.2e-07
MI4/I6/avD1_1	gnd!#1147	I4/avC41#19	I4/I6/avC16	gnd!#5
+ nmos1v#20ivpcell#20gpdk090	L=1e-07	W=1.2e-07
+ AD=4.08001e-14	AS=7.20006e-15	PD=6.8e-07	PS=2.4e-07	simW=1.2e-07 fw=1.2e-07
MI4/I6/avD1_2	I4/I6/avC10#5	I4/avC42#13	gnd!#1147	gnd!#5
+ nmos1v#20ivpcell#20gpdk090	L=1e-07	W=1.2e-07
+ AD=4.08001e-14	AS=4.08001e-14	PD=6.8e-07	PS=6.8e-07	simW=1.2e-07 fw=1.2e-07
MI4/I6/avD1_3	gnd!#1144	I4/avC41#20	I4/I6/avC10#5	gnd!#5
+ nmos1v#20ivpcell#20gpdk090	L=1e-07	W=1.2e-07
+ AD=6.96001e-14	AS=4.08001e-14	PD=1.16e-06	PS=6.8e-07	simW=1.2e-07 fw=1.2e-07
MI4/I6/avD1_4	gnd!#1141	I4/I6/avC11#14	avC107#7	gnd!#5
+ nmos1v#20ivpcell#20gpdk090	L=1e-07	W=1.2e-07
+ AD=4.08001e-14	AS=6.96001e-14	PD=6.8e-07	PS=1.16e-06	simW=1.2e-07 fw=1.2e-07
MI4/I6/avD1_5	avC95#12	I4/I6/avC12#9	gnd!#1141	gnd!#5
+ nmos1v#20ivpcell#20gpdk090	L=1e-07	W=1.2e-07
+ AD=6.96001e-14	AS=4.08001e-14	PD=1.16e-06	PS=6.8e-07	simW=1.2e-07 fw=1.2e-07
MI4/I6/avD1_6	I4/I6/avC16	I4/avC42#17	I4/I6/avC15	gnd!#5
+ nmos1v#20ivpcell#20gpdk090	L=1e-07	W=1.2e-07
+ AD=7.20006e-15	AS=7.20006e-15	PD=2.4e-07	PS=2.4e-07	simW=1.2e-07 fw=1.2e-07
MI4/I6/avD1_7	gnd!#1153	I4/avC42#21	I4/I6/avC8#4	gnd!#5
+ nmos1v#20ivpcell#20gpdk090	L=1e-07	W=4.8e-07
+ AD=7.68e-14	AS=1.344e-13	PD=8e-07	PS=1.52e-06	simW=4.8e-07 fw=4.8e-07
MI4/I6/avD1_8	I4/I6/avC8	avC34#68	gnd!#1153	gnd!#5
+ nmos1v#20ivpcell#20gpdk090	L=1e-07	W=4.8e-07
+ AD=7.68e-14	AS=7.68e-14	PD=8e-07	PS=8e-07	simW=4.8e-07 fw=4.8e-07
MI4/I6/avD1_9	I4/I6/avC11#10	I4/avC41#13	I4/I6/avC8	gnd!#5
+ nmos1v#20ivpcell#20gpdk090	L=1e-07	W=4.8e-07
+ AD=7.32001e-14	AS=7.68e-14	PD=8.6e-07	PS=8e-07	simW=4.8e-07 fw=4.8e-07
MI4/I6/avD1_10	I4/I6/avC14	avC34#66	I4/I6/avC11#10	gnd!#5
+ nmos1v#20ivpcell#20gpdk090	L=1e-07	W=1.2e-07
+ AD=7.20006e-15	AS=7.32001e-14	PD=2.4e-07	PS=8.6e-07	simW=1.2e-07 fw=1.2e-07
MI4/I6/avD1_11	gnd!#1150	I4/avC42#19	I4/I6/avC14	gnd!#5
+ nmos1v#20ivpcell#20gpdk090	L=1e-07	W=1.2e-07
+ AD=4.08001e-14	AS=7.20006e-15	PD=6.8e-07	PS=2.4e-07	simW=1.2e-07 fw=1.2e-07
MI4/I6/avD1_12	I4/I6/avC10	avC34#64	gnd!#1150	gnd!#5
+ nmos1v#20ivpcell#20gpdk090	L=1e-07	W=1.2e-07
+ AD=4.08001e-14	AS=4.08001e-14	PD=6.8e-07	PS=6.8e-07	simW=1.2e-07 fw=1.2e-07
MI4/I6/avD1_13	I4/I6/avC12#4	I4/I6/avC11#3	I4/I6/avC10	gnd!#5
+ nmos1v#20ivpcell#20gpdk090	L=1e-07	W=1.2e-07
+ AD=4.08001e-14	AS=4.08001e-14	PD=6.8e-07	PS=6.8e-07	simW=1.2e-07 fw=1.2e-07
MI4/I6/avD1_14	I4/I6/avC15	avC34#62	I4/I6/avC12#4	gnd!#5
+ nmos1v#20ivpcell#20gpdk090	L=1e-07	W=1.2e-07
+ AD=7.20006e-15	AS=4.08001e-14	PD=2.4e-07	PS=6.8e-07	simW=1.2e-07 fw=1.2e-07
MI4/I5/avD1_1	gnd!#1255	I4/avC39#19	I4/I5/avC16	gnd!#5
+ nmos1v#20ivpcell#20gpdk090	L=1e-07	W=1.2e-07
+ AD=4.08001e-14	AS=7.20006e-15	PD=6.8e-07	PS=2.4e-07	simW=1.2e-07 fw=1.2e-07
MI4/I5/avD1_2	I4/I5/avC10#5	I4/avC40#13	gnd!#1255	gnd!#5
+ nmos1v#20ivpcell#20gpdk090	L=1e-07	W=1.2e-07
+ AD=4.08001e-14	AS=4.08001e-14	PD=6.8e-07	PS=6.8e-07	simW=1.2e-07 fw=1.2e-07
MI4/I5/avD1_3	gnd!#1252	I4/avC39#20	I4/I5/avC10#5	gnd!#5
+ nmos1v#20ivpcell#20gpdk090	L=1e-07	W=1.2e-07
+ AD=6.96001e-14	AS=4.08001e-14	PD=1.16e-06	PS=6.8e-07	simW=1.2e-07 fw=1.2e-07
MI4/I5/avD1_4	gnd!#1249	I4/I5/avC11#18	I4/avC41#6	gnd!#5
+ nmos1v#20ivpcell#20gpdk090	L=1e-07	W=1.2e-07
+ AD=4.08001e-14	AS=6.96001e-14	PD=6.8e-07	PS=1.16e-06	simW=1.2e-07 fw=1.2e-07
MI4/I5/avD1_5	avC97#12	I4/I5/avC12#9	gnd!#1249	gnd!#5
+ nmos1v#20ivpcell#20gpdk090	L=1e-07	W=1.2e-07
+ AD=6.96001e-14	AS=4.08001e-14	PD=1.16e-06	PS=6.8e-07	simW=1.2e-07 fw=1.2e-07
MI4/I5/avD1_6	I4/I5/avC16	I4/avC40#17	I4/I5/avC15	gnd!#5
+ nmos1v#20ivpcell#20gpdk090	L=1e-07	W=1.2e-07
+ AD=7.20006e-15	AS=7.20006e-15	PD=2.4e-07	PS=2.4e-07	simW=1.2e-07 fw=1.2e-07
MI4/I5/avD1_7	gnd!#1261	I4/avC40#21	I4/I5/avC8#4	gnd!#5
+ nmos1v#20ivpcell#20gpdk090	L=1e-07	W=4.8e-07
+ AD=7.68e-14	AS=1.344e-13	PD=8e-07	PS=1.52e-06	simW=4.8e-07 fw=4.8e-07
MI4/I5/avD1_8	I4/I5/avC8	avC40#55	gnd!#1261	gnd!#5
+ nmos1v#20ivpcell#20gpdk090	L=1e-07	W=4.8e-07
+ AD=7.68e-14	AS=7.68e-14	PD=8e-07	PS=8e-07	simW=4.8e-07 fw=4.8e-07
MI4/I5/avD1_9	I4/I5/avC11#8	I4/avC39#13	I4/I5/avC8	gnd!#5
+ nmos1v#20ivpcell#20gpdk090	L=1e-07	W=4.8e-07
+ AD=7.32001e-14	AS=7.68e-14	PD=8.6e-07	PS=8e-07	simW=4.8e-07 fw=4.8e-07
MI4/I5/avD1_10	I4/I5/avC14	avC40#53	I4/I5/avC11#8	gnd!#5
+ nmos1v#20ivpcell#20gpdk090	L=1e-07	W=1.2e-07
+ AD=7.20006e-15	AS=7.32001e-14	PD=2.4e-07	PS=8.6e-07	simW=1.2e-07 fw=1.2e-07
MI4/I5/avD1_11	gnd!#1258	I4/avC40#19	I4/I5/avC14	gnd!#5
+ nmos1v#20ivpcell#20gpdk090	L=1e-07	W=1.2e-07
+ AD=4.08001e-14	AS=7.20006e-15	PD=6.8e-07	PS=2.4e-07	simW=1.2e-07 fw=1.2e-07
MI4/I5/avD1_12	I4/I5/avC10	avC40#51	gnd!#1258	gnd!#5
+ nmos1v#20ivpcell#20gpdk090	L=1e-07	W=1.2e-07
+ AD=4.08001e-14	AS=4.08001e-14	PD=6.8e-07	PS=6.8e-07	simW=1.2e-07 fw=1.2e-07
MI4/I5/avD1_13	I4/I5/avC12#4	I4/I5/avC11#11	I4/I5/avC10	gnd!#5
+ nmos1v#20ivpcell#20gpdk090	L=1e-07	W=1.2e-07
+ AD=4.08001e-14	AS=4.08001e-14	PD=6.8e-07	PS=6.8e-07	simW=1.2e-07 fw=1.2e-07
MI4/I5/avD1_14	I4/I5/avC15	avC40#49	I4/I5/avC12#4	gnd!#5
+ nmos1v#20ivpcell#20gpdk090	L=1e-07	W=1.2e-07
+ AD=7.20006e-15	AS=4.08001e-14	PD=2.4e-07	PS=6.8e-07	simW=1.2e-07 fw=1.2e-07
MI4/I4/avD1_1	gnd!#1279	I4/avC37#19	I4/I4/avC16	gnd!#5
+ nmos1v#20ivpcell#20gpdk090	L=1e-07	W=1.2e-07
+ AD=4.08001e-14	AS=7.20006e-15	PD=6.8e-07	PS=2.4e-07	simW=1.2e-07 fw=1.2e-07
MI4/I4/avD1_2	I4/I4/avC10#5	I4/avC38#13	gnd!#1279	gnd!#5
+ nmos1v#20ivpcell#20gpdk090	L=1e-07	W=1.2e-07
+ AD=4.08001e-14	AS=4.08001e-14	PD=6.8e-07	PS=6.8e-07	simW=1.2e-07 fw=1.2e-07
MI4/I4/avD1_3	gnd!#1276	I4/avC37#20	I4/I4/avC10#5	gnd!#5
+ nmos1v#20ivpcell#20gpdk090	L=1e-07	W=1.2e-07
+ AD=6.96001e-14	AS=4.08001e-14	PD=1.16e-06	PS=6.8e-07	simW=1.2e-07 fw=1.2e-07
MI4/I4/avD1_4	gnd!#1273	I4/I4/avC11#14	I4/avC39#6	gnd!#5
+ nmos1v#20ivpcell#20gpdk090	L=1e-07	W=1.2e-07
+ AD=4.08001e-14	AS=6.96001e-14	PD=6.8e-07	PS=1.16e-06	simW=1.2e-07 fw=1.2e-07
MI4/I4/avD1_5	avC84	I4/I4/avC12#10	gnd!#1273	gnd!#5
+ nmos1v#20ivpcell#20gpdk090	L=1e-07	W=1.2e-07
+ AD=6.96001e-14	AS=4.08001e-14	PD=1.16e-06	PS=6.8e-07	simW=1.2e-07 fw=1.2e-07
MI4/I4/avD1_6	I4/I4/avC16	I4/avC38#17	I4/I4/avC15	gnd!#5
+ nmos1v#20ivpcell#20gpdk090	L=1e-07	W=1.2e-07
+ AD=7.20006e-15	AS=7.20006e-15	PD=2.4e-07	PS=2.4e-07	simW=1.2e-07 fw=1.2e-07
MI4/I4/avD1_7	gnd!#1285	I4/avC38#21	I4/I4/avC8#4	gnd!#5
+ nmos1v#20ivpcell#20gpdk090	L=1e-07	W=4.8e-07
+ AD=7.68e-14	AS=1.344e-13	PD=8e-07	PS=1.52e-06	simW=4.8e-07 fw=4.8e-07
MI4/I4/avD1_8	I4/I4/avC8	avC49#43	gnd!#1285	gnd!#5
+ nmos1v#20ivpcell#20gpdk090	L=1e-07	W=4.8e-07
+ AD=7.68e-14	AS=7.68e-14	PD=8e-07	PS=8e-07	simW=4.8e-07 fw=4.8e-07
MI4/I4/avD1_9	I4/I4/avC11#8	I4/avC37#13	I4/I4/avC8	gnd!#5
+ nmos1v#20ivpcell#20gpdk090	L=1e-07	W=4.8e-07
+ AD=7.32001e-14	AS=7.68e-14	PD=8.6e-07	PS=8e-07	simW=4.8e-07 fw=4.8e-07
MI4/I4/avD1_10	I4/I4/avC14	avC49#41	I4/I4/avC11#8	gnd!#5
+ nmos1v#20ivpcell#20gpdk090	L=1e-07	W=1.2e-07
+ AD=7.20006e-15	AS=7.32001e-14	PD=2.4e-07	PS=8.6e-07	simW=1.2e-07 fw=1.2e-07
MI4/I4/avD1_11	gnd!#1282	I4/avC38#19	I4/I4/avC14	gnd!#5
+ nmos1v#20ivpcell#20gpdk090	L=1e-07	W=1.2e-07
+ AD=4.08001e-14	AS=7.20006e-15	PD=6.8e-07	PS=2.4e-07	simW=1.2e-07 fw=1.2e-07
MI4/I4/avD1_12	I4/I4/avC10	avC49#39	gnd!#1282	gnd!#5
+ nmos1v#20ivpcell#20gpdk090	L=1e-07	W=1.2e-07
+ AD=4.08001e-14	AS=4.08001e-14	PD=6.8e-07	PS=6.8e-07	simW=1.2e-07 fw=1.2e-07
MI4/I4/avD1_13	I4/I4/avC12#4	I4/I4/avC11#11	I4/I4/avC10	gnd!#5
+ nmos1v#20ivpcell#20gpdk090	L=1e-07	W=1.2e-07
+ AD=4.08001e-14	AS=4.08001e-14	PD=6.8e-07	PS=6.8e-07	simW=1.2e-07 fw=1.2e-07
MI4/I4/avD1_14	I4/I4/avC15	avC49#37	I4/I4/avC12#4	gnd!#5
+ nmos1v#20ivpcell#20gpdk090	L=1e-07	W=1.2e-07
+ AD=7.20006e-15	AS=4.08001e-14	PD=2.4e-07	PS=6.8e-07	simW=1.2e-07 fw=1.2e-07
MI4/I3/avD1_1	gnd!#1303	I4/avC35#19	I4/I3/avC16	gnd!#5
+ nmos1v#20ivpcell#20gpdk090	L=1e-07	W=1.2e-07
+ AD=4.08001e-14	AS=7.20006e-15	PD=6.8e-07	PS=2.4e-07	simW=1.2e-07 fw=1.2e-07
MI4/I3/avD1_2	I4/I3/avC10#5	I4/avC36#13	gnd!#1303	gnd!#5
+ nmos1v#20ivpcell#20gpdk090	L=1e-07	W=1.2e-07
+ AD=4.08001e-14	AS=4.08001e-14	PD=6.8e-07	PS=6.8e-07	simW=1.2e-07 fw=1.2e-07
MI4/I3/avD1_3	gnd!#1300	I4/avC35#20	I4/I3/avC10#5	gnd!#5
+ nmos1v#20ivpcell#20gpdk090	L=1e-07	W=1.2e-07
+ AD=6.96001e-14	AS=4.08001e-14	PD=1.16e-06	PS=6.8e-07	simW=1.2e-07 fw=1.2e-07
MI4/I3/avD1_4	gnd!#1297	I4/I3/avC11#14	I4/avC37#7	gnd!#5
+ nmos1v#20ivpcell#20gpdk090	L=1e-07	W=1.2e-07
+ AD=4.08001e-14	AS=6.96001e-14	PD=6.8e-07	PS=1.16e-06	simW=1.2e-07 fw=1.2e-07
MI4/I3/avD1_5	avC73	I4/I3/avC12#10	gnd!#1297	gnd!#5
+ nmos1v#20ivpcell#20gpdk090	L=1e-07	W=1.2e-07
+ AD=6.96001e-14	AS=4.08001e-14	PD=1.16e-06	PS=6.8e-07	simW=1.2e-07 fw=1.2e-07
MI4/I3/avD1_6	I4/I3/avC16	I4/avC36#17	I4/I3/avC15	gnd!#5
+ nmos1v#20ivpcell#20gpdk090	L=1e-07	W=1.2e-07
+ AD=7.20006e-15	AS=7.20006e-15	PD=2.4e-07	PS=2.4e-07	simW=1.2e-07 fw=1.2e-07
MI4/I3/avD1_7	gnd!#1309	I4/avC36#21	I4/I3/avC8#4	gnd!#5
+ nmos1v#20ivpcell#20gpdk090	L=1e-07	W=4.8e-07
+ AD=7.68e-14	AS=1.344e-13	PD=8e-07	PS=1.52e-06	simW=4.8e-07 fw=4.8e-07
MI4/I3/avD1_8	I4/I3/avC8	avC59#39	gnd!#1309	gnd!#5
+ nmos1v#20ivpcell#20gpdk090	L=1e-07	W=4.8e-07
+ AD=7.68e-14	AS=7.68e-14	PD=8e-07	PS=8e-07	simW=4.8e-07 fw=4.8e-07
MI4/I3/avD1_9	I4/I3/avC11#10	I4/avC35#13	I4/I3/avC8	gnd!#5
+ nmos1v#20ivpcell#20gpdk090	L=1e-07	W=4.8e-07
+ AD=7.32001e-14	AS=7.68e-14	PD=8.6e-07	PS=8e-07	simW=4.8e-07 fw=4.8e-07
MI4/I3/avD1_10	I4/I3/avC14	avC59#37	I4/I3/avC11#10	gnd!#5
+ nmos1v#20ivpcell#20gpdk090	L=1e-07	W=1.2e-07
+ AD=7.20006e-15	AS=7.32001e-14	PD=2.4e-07	PS=8.6e-07	simW=1.2e-07 fw=1.2e-07
MI4/I3/avD1_11	gnd!#1306	I4/avC36#19	I4/I3/avC14	gnd!#5
+ nmos1v#20ivpcell#20gpdk090	L=1e-07	W=1.2e-07
+ AD=4.08001e-14	AS=7.20006e-15	PD=6.8e-07	PS=2.4e-07	simW=1.2e-07 fw=1.2e-07
MI4/I3/avD1_12	I4/I3/avC10	avC59#35	gnd!#1306	gnd!#5
+ nmos1v#20ivpcell#20gpdk090	L=1e-07	W=1.2e-07
+ AD=4.08001e-14	AS=4.08001e-14	PD=6.8e-07	PS=6.8e-07	simW=1.2e-07 fw=1.2e-07
MI4/I3/avD1_13	I4/I3/avC12#4	I4/I3/avC11#3	I4/I3/avC10	gnd!#5
+ nmos1v#20ivpcell#20gpdk090	L=1e-07	W=1.2e-07
+ AD=4.08001e-14	AS=4.08001e-14	PD=6.8e-07	PS=6.8e-07	simW=1.2e-07 fw=1.2e-07
MI4/I3/avD1_14	I4/I3/avC15	avC59#33	I4/I3/avC12#4	gnd!#5
+ nmos1v#20ivpcell#20gpdk090	L=1e-07	W=1.2e-07
+ AD=7.20006e-15	AS=4.08001e-14	PD=2.4e-07	PS=6.8e-07	simW=1.2e-07 fw=1.2e-07
MI4/I2/avD1_1	gnd!#1327	I4/avC33#19	I4/I2/avC16	gnd!#5
+ nmos1v#20ivpcell#20gpdk090	L=1e-07	W=1.2e-07
+ AD=4.08001e-14	AS=7.20006e-15	PD=6.8e-07	PS=2.4e-07	simW=1.2e-07 fw=1.2e-07
MI4/I2/avD1_2	I4/I2/avC10#5	I4/avC34#13	gnd!#1327	gnd!#5
+ nmos1v#20ivpcell#20gpdk090	L=1e-07	W=1.2e-07
+ AD=4.08001e-14	AS=4.08001e-14	PD=6.8e-07	PS=6.8e-07	simW=1.2e-07 fw=1.2e-07
MI4/I2/avD1_3	gnd!#1324	I4/avC33#20	I4/I2/avC10#5	gnd!#5
+ nmos1v#20ivpcell#20gpdk090	L=1e-07	W=1.2e-07
+ AD=6.96001e-14	AS=4.08001e-14	PD=1.16e-06	PS=6.8e-07	simW=1.2e-07 fw=1.2e-07
MI4/I2/avD1_4	gnd!#1321	I4/I2/avC11#18	I4/avC35#6	gnd!#5
+ nmos1v#20ivpcell#20gpdk090	L=1e-07	W=1.2e-07
+ AD=4.08001e-14	AS=6.96001e-14	PD=6.8e-07	PS=1.16e-06	simW=1.2e-07 fw=1.2e-07
MI4/I2/avD1_5	avC65	I4/I2/avC12#9	gnd!#1321	gnd!#5
+ nmos1v#20ivpcell#20gpdk090	L=1e-07	W=1.2e-07
+ AD=6.96001e-14	AS=4.08001e-14	PD=1.16e-06	PS=6.8e-07	simW=1.2e-07 fw=1.2e-07
MI4/I2/avD1_6	I4/I2/avC16	I4/avC34#17	I4/I2/avC15	gnd!#5
+ nmos1v#20ivpcell#20gpdk090	L=1e-07	W=1.2e-07
+ AD=7.20006e-15	AS=7.20006e-15	PD=2.4e-07	PS=2.4e-07	simW=1.2e-07 fw=1.2e-07
MI4/I2/avD1_7	gnd!#1333	I4/avC34#21	I4/I2/avC8#4	gnd!#5
+ nmos1v#20ivpcell#20gpdk090	L=1e-07	W=4.8e-07
+ AD=7.68e-14	AS=1.344e-13	PD=8e-07	PS=1.52e-06	simW=4.8e-07 fw=4.8e-07
MI4/I2/avD1_8	I4/I2/avC8	avC56#18	gnd!#1333	gnd!#5
+ nmos1v#20ivpcell#20gpdk090	L=1e-07	W=4.8e-07
+ AD=7.68e-14	AS=7.68e-14	PD=8e-07	PS=8e-07	simW=4.8e-07 fw=4.8e-07
MI4/I2/avD1_9	I4/I2/avC11#8	I4/avC33#13	I4/I2/avC8	gnd!#5
+ nmos1v#20ivpcell#20gpdk090	L=1e-07	W=4.8e-07
+ AD=7.32001e-14	AS=7.68e-14	PD=8.6e-07	PS=8e-07	simW=4.8e-07 fw=4.8e-07
MI4/I2/avD1_10	I4/I2/avC14	avC56#16	I4/I2/avC11#8	gnd!#5
+ nmos1v#20ivpcell#20gpdk090	L=1e-07	W=1.2e-07
+ AD=7.20006e-15	AS=7.32001e-14	PD=2.4e-07	PS=8.6e-07	simW=1.2e-07 fw=1.2e-07
MI4/I2/avD1_11	gnd!#1330	I4/avC34#19	I4/I2/avC14	gnd!#5
+ nmos1v#20ivpcell#20gpdk090	L=1e-07	W=1.2e-07
+ AD=4.08001e-14	AS=7.20006e-15	PD=6.8e-07	PS=2.4e-07	simW=1.2e-07 fw=1.2e-07
MI4/I2/avD1_12	I4/I2/avC10	avC56#14	gnd!#1330	gnd!#5
+ nmos1v#20ivpcell#20gpdk090	L=1e-07	W=1.2e-07
+ AD=4.08001e-14	AS=4.08001e-14	PD=6.8e-07	PS=6.8e-07	simW=1.2e-07 fw=1.2e-07
MI4/I2/avD1_13	I4/I2/avC12#4	I4/I2/avC11#11	I4/I2/avC10	gnd!#5
+ nmos1v#20ivpcell#20gpdk090	L=1e-07	W=1.2e-07
+ AD=4.08001e-14	AS=4.08001e-14	PD=6.8e-07	PS=6.8e-07	simW=1.2e-07 fw=1.2e-07
MI4/I2/avD1_14	I4/I2/avC15	avC56#12	I4/I2/avC12#4	gnd!#5
+ nmos1v#20ivpcell#20gpdk090	L=1e-07	W=1.2e-07
+ AD=7.20006e-15	AS=4.08001e-14	PD=2.4e-07	PS=6.8e-07	simW=1.2e-07 fw=1.2e-07
MI4/I1/avD1_1	gnd!#1351	I4/avC31#19	I4/I1/avC16	gnd!#5
+ nmos1v#20ivpcell#20gpdk090	L=1e-07	W=1.2e-07
+ AD=4.08001e-14	AS=7.20006e-15	PD=6.8e-07	PS=2.4e-07	simW=1.2e-07 fw=1.2e-07
MI4/I1/avD1_2	I4/I1/avC10#5	I4/avC32#13	gnd!#1351	gnd!#5
+ nmos1v#20ivpcell#20gpdk090	L=1e-07	W=1.2e-07
+ AD=4.08001e-14	AS=4.08001e-14	PD=6.8e-07	PS=6.8e-07	simW=1.2e-07 fw=1.2e-07
MI4/I1/avD1_3	gnd!#1348	I4/avC31#20	I4/I1/avC10#5	gnd!#5
+ nmos1v#20ivpcell#20gpdk090	L=1e-07	W=1.2e-07
+ AD=6.96001e-14	AS=4.08001e-14	PD=1.16e-06	PS=6.8e-07	simW=1.2e-07 fw=1.2e-07
MI4/I1/avD1_4	gnd!#1345	I4/I1/avC11#14	I4/avC33#6	gnd!#5
+ nmos1v#20ivpcell#20gpdk090	L=1e-07	W=1.2e-07
+ AD=4.08001e-14	AS=6.96001e-14	PD=6.8e-07	PS=1.16e-06	simW=1.2e-07 fw=1.2e-07
MI4/I1/avD1_5	avC48	I4/I1/avC12#9	gnd!#1345	gnd!#5
+ nmos1v#20ivpcell#20gpdk090	L=1e-07	W=1.2e-07
+ AD=6.96001e-14	AS=4.08001e-14	PD=1.16e-06	PS=6.8e-07	simW=1.2e-07 fw=1.2e-07
MI4/I1/avD1_6	I4/I1/avC16	I4/avC32#17	I4/I1/avC15	gnd!#5
+ nmos1v#20ivpcell#20gpdk090	L=1e-07	W=1.2e-07
+ AD=7.20006e-15	AS=7.20006e-15	PD=2.4e-07	PS=2.4e-07	simW=1.2e-07 fw=1.2e-07
MI4/I1/avD1_7	gnd!#1357	I4/avC32#21	I4/I1/avC8#4	gnd!#5
+ nmos1v#20ivpcell#20gpdk090	L=1e-07	W=4.8e-07
+ AD=7.68e-14	AS=1.344e-13	PD=8e-07	PS=1.52e-06	simW=4.8e-07 fw=4.8e-07
MI4/I1/avD1_8	I4/I1/avC8	avC39#18	gnd!#1357	gnd!#5
+ nmos1v#20ivpcell#20gpdk090	L=1e-07	W=4.8e-07
+ AD=7.68e-14	AS=7.68e-14	PD=8e-07	PS=8e-07	simW=4.8e-07 fw=4.8e-07
MI4/I1/avD1_9	I4/I1/avC11#8	I4/avC31#13	I4/I1/avC8	gnd!#5
+ nmos1v#20ivpcell#20gpdk090	L=1e-07	W=4.8e-07
+ AD=7.32001e-14	AS=7.68e-14	PD=8.6e-07	PS=8e-07	simW=4.8e-07 fw=4.8e-07
MI4/I1/avD1_10	I4/I1/avC14	avC39#16	I4/I1/avC11#8	gnd!#5
+ nmos1v#20ivpcell#20gpdk090	L=1e-07	W=1.2e-07
+ AD=7.20006e-15	AS=7.32001e-14	PD=2.4e-07	PS=8.6e-07	simW=1.2e-07 fw=1.2e-07
MI4/I1/avD1_11	gnd!#1354	I4/avC32#19	I4/I1/avC14	gnd!#5
+ nmos1v#20ivpcell#20gpdk090	L=1e-07	W=1.2e-07
+ AD=4.08001e-14	AS=7.20006e-15	PD=6.8e-07	PS=2.4e-07	simW=1.2e-07 fw=1.2e-07
MI4/I1/avD1_12	I4/I1/avC10	avC39#14	gnd!#1354	gnd!#5
+ nmos1v#20ivpcell#20gpdk090	L=1e-07	W=1.2e-07
+ AD=4.08001e-14	AS=4.08001e-14	PD=6.8e-07	PS=6.8e-07	simW=1.2e-07 fw=1.2e-07
MI4/I1/avD1_13	I4/I1/avC12#4	I4/I1/avC11#11	I4/I1/avC10	gnd!#5
+ nmos1v#20ivpcell#20gpdk090	L=1e-07	W=1.2e-07
+ AD=4.08001e-14	AS=4.08001e-14	PD=6.8e-07	PS=6.8e-07	simW=1.2e-07 fw=1.2e-07
MI4/I1/avD1_14	I4/I1/avC15	avC39#12	I4/I1/avC12#4	gnd!#5
+ nmos1v#20ivpcell#20gpdk090	L=1e-07	W=1.2e-07
+ AD=7.20006e-15	AS=4.08001e-14	PD=2.4e-07	PS=6.8e-07	simW=1.2e-07 fw=1.2e-07
MI4/I0/avD1_1	gnd!#1375	avC46#20	I4/I0/avC16	gnd!#5
+ nmos1v#20ivpcell#20gpdk090	L=1e-07	W=1.2e-07
+ AD=4.08001e-14	AS=7.20006e-15	PD=6.8e-07	PS=2.4e-07	simW=1.2e-07 fw=1.2e-07
MI4/I0/avD1_2	I4/I0/avC10#5	I4/avC30#13	gnd!#1375	gnd!#5
+ nmos1v#20ivpcell#20gpdk090	L=1e-07	W=1.2e-07
+ AD=4.08001e-14	AS=4.08001e-14	PD=6.8e-07	PS=6.8e-07	simW=1.2e-07 fw=1.2e-07
MI4/I0/avD1_3	gnd!#1372	avC46#21	I4/I0/avC10#5	gnd!#5
+ nmos1v#20ivpcell#20gpdk090	L=1e-07	W=1.2e-07
+ AD=6.96001e-14	AS=4.08001e-14	PD=1.16e-06	PS=6.8e-07	simW=1.2e-07 fw=1.2e-07
MI4/I0/avD1_4	gnd!#1369	I4/I0/avC11#14	I4/avC31#6	gnd!#5
+ nmos1v#20ivpcell#20gpdk090	L=1e-07	W=1.2e-07
+ AD=4.08001e-14	AS=6.96001e-14	PD=6.8e-07	PS=1.16e-06	simW=1.2e-07 fw=1.2e-07
MI4/I0/avD1_5	avC36	I4/I0/avC12#9	gnd!#1369	gnd!#5
+ nmos1v#20ivpcell#20gpdk090	L=1e-07	W=1.2e-07
+ AD=6.96001e-14	AS=4.08001e-14	PD=1.16e-06	PS=6.8e-07	simW=1.2e-07 fw=1.2e-07
MI4/I0/avD1_6	I4/I0/avC16	I4/avC30#17	I4/I0/avC15	gnd!#5
+ nmos1v#20ivpcell#20gpdk090	L=1e-07	W=1.2e-07
+ AD=7.20006e-15	AS=7.20006e-15	PD=2.4e-07	PS=2.4e-07	simW=1.2e-07 fw=1.2e-07
MI4/I0/avD1_7	gnd!#1381	I4/avC30#21	I4/I0/avC8#4	gnd!#5
+ nmos1v#20ivpcell#20gpdk090	L=1e-07	W=4.8e-07
+ AD=7.68e-14	AS=1.344e-13	PD=8e-07	PS=1.52e-06	simW=4.8e-07 fw=4.8e-07
MI4/I0/avD1_8	I4/I0/avC8	avC33#18	gnd!#1381	gnd!#5
+ nmos1v#20ivpcell#20gpdk090	L=1e-07	W=4.8e-07
+ AD=7.68e-14	AS=7.68e-14	PD=8e-07	PS=8e-07	simW=4.8e-07 fw=4.8e-07
MI4/I0/avD1_9	I4/I0/avC11#10	avC46#14	I4/I0/avC8	gnd!#5
+ nmos1v#20ivpcell#20gpdk090	L=1e-07	W=4.8e-07
+ AD=7.32001e-14	AS=7.68e-14	PD=8.6e-07	PS=8e-07	simW=4.8e-07 fw=4.8e-07
MI4/I0/avD1_10	I4/I0/avC14	avC33#16	I4/I0/avC11#10	gnd!#5
+ nmos1v#20ivpcell#20gpdk090	L=1e-07	W=1.2e-07
+ AD=7.20006e-15	AS=7.32001e-14	PD=2.4e-07	PS=8.6e-07	simW=1.2e-07 fw=1.2e-07
MI4/I0/avD1_11	gnd!#1378	I4/avC30#19	I4/I0/avC14	gnd!#5
+ nmos1v#20ivpcell#20gpdk090	L=1e-07	W=1.2e-07
+ AD=4.08001e-14	AS=7.20006e-15	PD=6.8e-07	PS=2.4e-07	simW=1.2e-07 fw=1.2e-07
MI4/I0/avD1_12	I4/I0/avC10	avC33#14	gnd!#1378	gnd!#5
+ nmos1v#20ivpcell#20gpdk090	L=1e-07	W=1.2e-07
+ AD=4.08001e-14	AS=4.08001e-14	PD=6.8e-07	PS=6.8e-07	simW=1.2e-07 fw=1.2e-07
MI4/I0/avD1_13	I4/I0/avC12#4	I4/I0/avC11#3	I4/I0/avC10	gnd!#5
+ nmos1v#20ivpcell#20gpdk090	L=1e-07	W=1.2e-07
+ AD=4.08001e-14	AS=4.08001e-14	PD=6.8e-07	PS=6.8e-07	simW=1.2e-07 fw=1.2e-07
MI4/I0/avD1_14	I4/I0/avC15	avC33#12	I4/I0/avC12#4	gnd!#5
+ nmos1v#20ivpcell#20gpdk090	L=1e-07	W=1.2e-07
+ AD=7.20006e-15	AS=4.08001e-14	PD=2.4e-07	PS=6.8e-07	simW=1.2e-07 fw=1.2e-07
MI4/I32/avD1_1	gnd!#1135	I4/I32/avC9	I4/avC43#6	gnd!#5
+ nmos1v#20ivpcell#20gpdk090	L=1e-07	W=1.2e-07
+ AD=3.96001e-14	AS=6.96001e-14	PD=6.2e-07	PS=1.16e-06	simW=1.2e-07 fw=1.2e-07
MI4/I32/avD1_2	I4/I32/avC10	avC46#83	gnd!#1135	gnd!#5
+ nmos1v#20ivpcell#20gpdk090	L=1e-07	W=2.4e-07
+ AD=1.44001e-14	AS=3.96001e-14	PD=3.6e-07	PS=6.2e-07	simW=2.4e-07 fw=2.4e-07
MI4/I32/avD1_3	I4/I32/avC9#10	I4/avC51#11	I4/I32/avC10	gnd!#5
+ nmos1v#20ivpcell#20gpdk090	L=1e-07	W=2.4e-07
+ AD=3.84001e-14	AS=1.44001e-14	PD=5.6e-07	PS=3.6e-07	simW=2.4e-07 fw=2.4e-07
MI4/I32/avD1_4	I4/I32/avC11	avC91#63	I4/I32/avC9#10	gnd!#5
+ nmos1v#20ivpcell#20gpdk090	L=1e-07	W=2.4e-07
+ AD=1.44001e-14	AS=3.84001e-14	PD=3.6e-07	PS=5.6e-07	simW=2.4e-07 fw=2.4e-07
MI4/I32/avD1_5	gnd!#1132	I4/I32/avC7#5	I4/I32/avC11	gnd!#5
+ nmos1v#20ivpcell#20gpdk090	L=1e-07	W=2.4e-07
+ AD=3.96001e-14	AS=1.44001e-14	PD=6.2e-07	PS=3.6e-07	simW=2.4e-07 fw=2.4e-07
MI4/I32/avD1_6	I4/I32/avC7#11	avC46#82	gnd!#1132	gnd!#5
+ nmos1v#20ivpcell#20gpdk090	L=1e-07	W=1.2e-07
+ AD=6.96001e-14	AS=3.96001e-14	PD=1.16e-06	PS=6.2e-07	simW=1.2e-07 fw=1.2e-07
MI4/I29/avD1_1	gnd!#1159	I4/I29/avC9	I4/avC42#2	gnd!#5
+ nmos1v#20ivpcell#20gpdk090	L=1e-07	W=1.2e-07
+ AD=3.96001e-14	AS=6.96001e-14	PD=6.2e-07	PS=1.16e-06	simW=1.2e-07 fw=1.2e-07
MI4/I29/avD1_2	I4/I29/avC10	avC46#76	gnd!#1159	gnd!#5
+ nmos1v#20ivpcell#20gpdk090	L=1e-07	W=2.4e-07
+ AD=1.44001e-14	AS=3.96001e-14	PD=3.6e-07	PS=6.2e-07	simW=2.4e-07 fw=2.4e-07
MI4/I29/avD1_3	I4/I29/avC9#10	I4/avC50#11	I4/I29/avC10	gnd!#5
+ nmos1v#20ivpcell#20gpdk090	L=1e-07	W=2.4e-07
+ AD=3.84001e-14	AS=1.44001e-14	PD=5.6e-07	PS=3.6e-07	simW=2.4e-07 fw=2.4e-07
MI4/I29/avD1_4	I4/I29/avC11	avC80#53	I4/I29/avC9#10	gnd!#5
+ nmos1v#20ivpcell#20gpdk090	L=1e-07	W=2.4e-07
+ AD=1.44001e-14	AS=3.84001e-14	PD=3.6e-07	PS=5.6e-07	simW=2.4e-07 fw=2.4e-07
MI4/I29/avD1_5	gnd!#1156	I4/I29/avC7#5	I4/I29/avC11	gnd!#5
+ nmos1v#20ivpcell#20gpdk090	L=1e-07	W=2.4e-07
+ AD=3.96001e-14	AS=1.44001e-14	PD=6.2e-07	PS=3.6e-07	simW=2.4e-07 fw=2.4e-07
MI4/I29/avD1_6	I4/I29/avC7#11	avC46#75	gnd!#1156	gnd!#5
+ nmos1v#20ivpcell#20gpdk090	L=1e-07	W=1.2e-07
+ AD=6.96001e-14	AS=3.96001e-14	PD=1.16e-06	PS=6.2e-07	simW=1.2e-07 fw=1.2e-07
MI4/I28/avD1_1	gnd!#1267	I4/I28/avC9	I4/avC40#2	gnd!#5
+ nmos1v#20ivpcell#20gpdk090	L=1e-07	W=1.2e-07
+ AD=3.96001e-14	AS=6.96001e-14	PD=6.2e-07	PS=1.16e-06	simW=1.2e-07 fw=1.2e-07
MI4/I28/avD1_2	I4/I28/avC10	avC46#67	gnd!#1267	gnd!#5
+ nmos1v#20ivpcell#20gpdk090	L=1e-07	W=2.4e-07
+ AD=1.44001e-14	AS=3.96001e-14	PD=3.6e-07	PS=6.2e-07	simW=2.4e-07 fw=2.4e-07
MI4/I28/avD1_3	I4/I28/avC9#10	I4/avC49#11	I4/I28/avC10	gnd!#5
+ nmos1v#20ivpcell#20gpdk090	L=1e-07	W=2.4e-07
+ AD=3.84001e-14	AS=1.44001e-14	PD=5.6e-07	PS=3.6e-07	simW=2.4e-07 fw=2.4e-07
MI4/I28/avD1_4	I4/I28/avC11	avC74#38	I4/I28/avC9#10	gnd!#5
+ nmos1v#20ivpcell#20gpdk090	L=1e-07	W=2.4e-07
+ AD=1.44001e-14	AS=3.84001e-14	PD=3.6e-07	PS=5.6e-07	simW=2.4e-07 fw=2.4e-07
MI4/I28/avD1_5	gnd!#1264	I4/I28/avC7#5	I4/I28/avC11	gnd!#5
+ nmos1v#20ivpcell#20gpdk090	L=1e-07	W=2.4e-07
+ AD=3.96001e-14	AS=1.44001e-14	PD=6.2e-07	PS=3.6e-07	simW=2.4e-07 fw=2.4e-07
MI4/I28/avD1_6	I4/I28/avC7#11	avC46#66	gnd!#1264	gnd!#5
+ nmos1v#20ivpcell#20gpdk090	L=1e-07	W=1.2e-07
+ AD=6.96001e-14	AS=3.96001e-14	PD=1.16e-06	PS=6.2e-07	simW=1.2e-07 fw=1.2e-07
MI4/I25/avD1_1	gnd!#1291	I4/I25/avC9	I4/avC38#6	gnd!#5
+ nmos1v#20ivpcell#20gpdk090	L=1e-07	W=1.2e-07
+ AD=3.96001e-14	AS=6.96001e-14	PD=6.2e-07	PS=1.16e-06	simW=1.2e-07 fw=1.2e-07
MI4/I25/avD1_2	I4/I25/avC10	avC46#60	gnd!#1291	gnd!#5
+ nmos1v#20ivpcell#20gpdk090	L=1e-07	W=2.4e-07
+ AD=1.44001e-14	AS=3.96001e-14	PD=3.6e-07	PS=6.2e-07	simW=2.4e-07 fw=2.4e-07
MI4/I25/avD1_3	I4/I25/avC9#10	I4/avC48#11	I4/I25/avC10	gnd!#5
+ nmos1v#20ivpcell#20gpdk090	L=1e-07	W=2.4e-07
+ AD=3.84001e-14	AS=1.44001e-14	PD=5.6e-07	PS=3.6e-07	simW=2.4e-07 fw=2.4e-07
MI4/I25/avD1_4	I4/I25/avC11	avC70#39	I4/I25/avC9#10	gnd!#5
+ nmos1v#20ivpcell#20gpdk090	L=1e-07	W=2.4e-07
+ AD=1.44001e-14	AS=3.84001e-14	PD=3.6e-07	PS=5.6e-07	simW=2.4e-07 fw=2.4e-07
MI4/I25/avD1_5	gnd!#1288	I4/I25/avC7#5	I4/I25/avC11	gnd!#5
+ nmos1v#20ivpcell#20gpdk090	L=1e-07	W=2.4e-07
+ AD=3.96001e-14	AS=1.44001e-14	PD=6.2e-07	PS=3.6e-07	simW=2.4e-07 fw=2.4e-07
MI4/I25/avD1_6	I4/I25/avC7#11	avC46#59	gnd!#1288	gnd!#5
+ nmos1v#20ivpcell#20gpdk090	L=1e-07	W=1.2e-07
+ AD=6.96001e-14	AS=3.96001e-14	PD=1.16e-06	PS=6.2e-07	simW=1.2e-07 fw=1.2e-07
MI4/I24/avD1_1	gnd!#1315	I4/I24/avC9	I4/avC36#2	gnd!#5
+ nmos1v#20ivpcell#20gpdk090	L=1e-07	W=1.2e-07
+ AD=3.96001e-14	AS=6.96001e-14	PD=6.2e-07	PS=1.16e-06	simW=1.2e-07 fw=1.2e-07
MI4/I24/avD1_2	I4/I24/avC10	avC46#53	gnd!#1315	gnd!#5
+ nmos1v#20ivpcell#20gpdk090	L=1e-07	W=2.4e-07
+ AD=1.44001e-14	AS=3.96001e-14	PD=3.6e-07	PS=6.2e-07	simW=2.4e-07 fw=2.4e-07
MI4/I24/avD1_3	I4/I24/avC9#10	I4/avC47#11	I4/I24/avC10	gnd!#5
+ nmos1v#20ivpcell#20gpdk090	L=1e-07	W=2.4e-07
+ AD=3.84001e-14	AS=1.44001e-14	PD=5.6e-07	PS=3.6e-07	simW=2.4e-07 fw=2.4e-07
MI4/I24/avD1_4	I4/I24/avC11	avC61#27	I4/I24/avC9#10	gnd!#5
+ nmos1v#20ivpcell#20gpdk090	L=1e-07	W=2.4e-07
+ AD=1.44001e-14	AS=3.84001e-14	PD=3.6e-07	PS=5.6e-07	simW=2.4e-07 fw=2.4e-07
MI4/I24/avD1_5	gnd!#1312	I4/I24/avC7#5	I4/I24/avC11	gnd!#5
+ nmos1v#20ivpcell#20gpdk090	L=1e-07	W=2.4e-07
+ AD=3.96001e-14	AS=1.44001e-14	PD=6.2e-07	PS=3.6e-07	simW=2.4e-07 fw=2.4e-07
MI4/I24/avD1_6	I4/I24/avC7#11	avC46#52	gnd!#1312	gnd!#5
+ nmos1v#20ivpcell#20gpdk090	L=1e-07	W=1.2e-07
+ AD=6.96001e-14	AS=3.96001e-14	PD=1.16e-06	PS=6.2e-07	simW=1.2e-07 fw=1.2e-07
MI4/I21/avD1_1	gnd!#1339	I4/I21/avC9	I4/avC34#2	gnd!#5
+ nmos1v#20ivpcell#20gpdk090	L=1e-07	W=1.2e-07
+ AD=3.96001e-14	AS=6.96001e-14	PD=6.2e-07	PS=1.16e-06	simW=1.2e-07 fw=1.2e-07
MI4/I21/avD1_2	I4/I21/avC10	avC46#46	gnd!#1339	gnd!#5
+ nmos1v#20ivpcell#20gpdk090	L=1e-07	W=2.4e-07
+ AD=1.44001e-14	AS=3.96001e-14	PD=3.6e-07	PS=6.2e-07	simW=2.4e-07 fw=2.4e-07
MI4/I21/avD1_3	I4/I21/avC9#10	I4/avC46#11	I4/I21/avC10	gnd!#5
+ nmos1v#20ivpcell#20gpdk090	L=1e-07	W=2.4e-07
+ AD=3.84001e-14	AS=1.44001e-14	PD=5.6e-07	PS=3.6e-07	simW=2.4e-07 fw=2.4e-07
MI4/I21/avD1_4	I4/I21/avC11	avC53#27	I4/I21/avC9#10	gnd!#5
+ nmos1v#20ivpcell#20gpdk090	L=1e-07	W=2.4e-07
+ AD=1.44001e-14	AS=3.84001e-14	PD=3.6e-07	PS=5.6e-07	simW=2.4e-07 fw=2.4e-07
MI4/I21/avD1_5	gnd!#1336	I4/I21/avC7#5	I4/I21/avC11	gnd!#5
+ nmos1v#20ivpcell#20gpdk090	L=1e-07	W=2.4e-07
+ AD=3.96001e-14	AS=1.44001e-14	PD=6.2e-07	PS=3.6e-07	simW=2.4e-07 fw=2.4e-07
MI4/I21/avD1_6	I4/I21/avC7#11	avC46#45	gnd!#1336	gnd!#5
+ nmos1v#20ivpcell#20gpdk090	L=1e-07	W=1.2e-07
+ AD=6.96001e-14	AS=3.96001e-14	PD=1.16e-06	PS=6.2e-07	simW=1.2e-07 fw=1.2e-07
MI4/I20/avD1_1	gnd!#1363	I4/I20/avC9	I4/avC32#2	gnd!#5
+ nmos1v#20ivpcell#20gpdk090	L=1e-07	W=1.2e-07
+ AD=3.96001e-14	AS=6.96001e-14	PD=6.2e-07	PS=1.16e-06	simW=1.2e-07 fw=1.2e-07
MI4/I20/avD1_2	I4/I20/avC10	avC46#39	gnd!#1363	gnd!#5
+ nmos1v#20ivpcell#20gpdk090	L=1e-07	W=2.4e-07
+ AD=1.44001e-14	AS=3.96001e-14	PD=3.6e-07	PS=6.2e-07	simW=2.4e-07 fw=2.4e-07
MI4/I20/avD1_3	I4/I20/avC9#10	I4/avC45#11	I4/I20/avC10	gnd!#5
+ nmos1v#20ivpcell#20gpdk090	L=1e-07	W=2.4e-07
+ AD=3.84001e-14	AS=1.44001e-14	PD=5.6e-07	PS=3.6e-07	simW=2.4e-07 fw=2.4e-07
MI4/I20/avD1_4	I4/I20/avC11	avC44#27	I4/I20/avC9#10	gnd!#5
+ nmos1v#20ivpcell#20gpdk090	L=1e-07	W=2.4e-07
+ AD=1.44001e-14	AS=3.84001e-14	PD=3.6e-07	PS=5.6e-07	simW=2.4e-07 fw=2.4e-07
MI4/I20/avD1_5	gnd!#1360	I4/I20/avC7#5	I4/I20/avC11	gnd!#5
+ nmos1v#20ivpcell#20gpdk090	L=1e-07	W=2.4e-07
+ AD=3.96001e-14	AS=1.44001e-14	PD=6.2e-07	PS=3.6e-07	simW=2.4e-07 fw=2.4e-07
MI4/I20/avD1_6	I4/I20/avC7#11	avC46#38	gnd!#1360	gnd!#5
+ nmos1v#20ivpcell#20gpdk090	L=1e-07	W=1.2e-07
+ AD=6.96001e-14	AS=3.96001e-14	PD=1.16e-06	PS=6.2e-07	simW=1.2e-07 fw=1.2e-07
MI4/I17/avD1_1	gnd!#1387	I4/I17/avC9	I4/avC30	gnd!#5
+ nmos1v#20ivpcell#20gpdk090	L=1e-07	W=1.2e-07
+ AD=3.96001e-14	AS=6.96001e-14	PD=6.2e-07	PS=1.16e-06	simW=1.2e-07 fw=1.2e-07
MI4/I17/avD1_2	I4/I17/avC10	avC46#5	gnd!#1387	gnd!#5
+ nmos1v#20ivpcell#20gpdk090	L=1e-07	W=2.4e-07
+ AD=1.44001e-14	AS=3.96001e-14	PD=3.6e-07	PS=6.2e-07	simW=2.4e-07 fw=2.4e-07
MI4/I17/avD1_3	I4/I17/avC9#10	I4/avC44#11	I4/I17/avC10	gnd!#5
+ nmos1v#20ivpcell#20gpdk090	L=1e-07	W=2.4e-07
+ AD=3.84001e-14	AS=1.44001e-14	PD=5.6e-07	PS=3.6e-07	simW=2.4e-07 fw=2.4e-07
MI4/I17/avD1_4	I4/I17/avC11	avC37#14	I4/I17/avC9#10	gnd!#5
+ nmos1v#20ivpcell#20gpdk090	L=1e-07	W=2.4e-07
+ AD=1.44001e-14	AS=3.84001e-14	PD=3.6e-07	PS=5.6e-07	simW=2.4e-07 fw=2.4e-07
MI4/I17/avD1_5	gnd!#1384	I4/I17/avC7#5	I4/I17/avC11	gnd!#5
+ nmos1v#20ivpcell#20gpdk090	L=1e-07	W=2.4e-07
+ AD=3.96001e-14	AS=1.44001e-14	PD=6.2e-07	PS=3.6e-07	simW=2.4e-07 fw=2.4e-07
MI4/I17/avD1_6	I4/I17/avC7#11	avC46#4	gnd!#1384	gnd!#5
+ nmos1v#20ivpcell#20gpdk090	L=1e-07	W=1.2e-07
+ AD=6.96001e-14	AS=3.96001e-14	PD=1.16e-06	PS=6.2e-07	simW=1.2e-07 fw=1.2e-07
MI4/I31/avD1_1	I4/avC51#5	avC91#48	gnd!#1138	gnd!#5
+ nmos1v#20ivpcell#20gpdk090	L=1e-07	W=1.2e-07
+ AD=6.96001e-14	AS=6.96001e-14	PD=1.16e-06	PS=1.16e-06	simW=1.2e-07 fw=1.2e-07
MI4/I30/avD1_1	I4/avC50#5	avC80#46	gnd!#1246	gnd!#5
+ nmos1v#20ivpcell#20gpdk090	L=1e-07	W=1.2e-07
+ AD=6.96001e-14	AS=6.96001e-14	PD=1.16e-06	PS=1.16e-06	simW=1.2e-07 fw=1.2e-07
MI4/I27/avD1_1	I4/avC49#5	avC74#30	gnd!#1270	gnd!#5
+ nmos1v#20ivpcell#20gpdk090	L=1e-07	W=1.2e-07
+ AD=6.96001e-14	AS=6.96001e-14	PD=1.16e-06	PS=1.16e-06	simW=1.2e-07 fw=1.2e-07
MI4/I26/avD1_1	I4/avC48#5	avC70#28	gnd!#1294	gnd!#5
+ nmos1v#20ivpcell#20gpdk090	L=1e-07	W=1.2e-07
+ AD=6.96001e-14	AS=6.96001e-14	PD=1.16e-06	PS=1.16e-06	simW=1.2e-07 fw=1.2e-07
MI4/I23/avD1_1	I4/avC47#5	avC61#19	gnd!#1318	gnd!#5
+ nmos1v#20ivpcell#20gpdk090	L=1e-07	W=1.2e-07
+ AD=6.96001e-14	AS=6.96001e-14	PD=1.16e-06	PS=1.16e-06	simW=1.2e-07 fw=1.2e-07
MI4/I22/avD1_1	I4/avC46#5	avC53#16	gnd!#1342	gnd!#5
+ nmos1v#20ivpcell#20gpdk090	L=1e-07	W=1.2e-07
+ AD=6.96001e-14	AS=6.96001e-14	PD=1.16e-06	PS=1.16e-06	simW=1.2e-07 fw=1.2e-07
MI4/I19/avD1_1	I4/avC45#5	avC44#3	gnd!#1366	gnd!#5
+ nmos1v#20ivpcell#20gpdk090	L=1e-07	W=1.2e-07
+ AD=6.96001e-14	AS=6.96001e-14	PD=1.16e-06	PS=1.16e-06	simW=1.2e-07 fw=1.2e-07
MI4/I18/avD1_1	I4/avC44#5	avC37#6	gnd!#1243	gnd!#5
+ nmos1v#20ivpcell#20gpdk090	L=1e-07	W=1.2e-07
+ AD=6.96001e-14	AS=6.96001e-14	PD=1.16e-06	PS=1.16e-06	simW=1.2e-07 fw=1.2e-07
MI17/I7/avD1_1	gnd!#59	I17/I7/avC6#9	avC35#36	gnd!#5
+ nmos1v#20ivpcell#20gpdk090	L=1e-07	W=1.2e-07
+ AD=3.96001e-14	AS=6.96001e-14	PD=6.2e-07	PS=1.16e-06	simW=1.2e-07 fw=1.2e-07
MI17/I7/avD1_2	I17/I7/avC8	avC88	gnd!#59	gnd!#5
+ nmos1v#20ivpcell#20gpdk090	L=1e-07	W=2.4e-07
+ AD=1.44001e-14	AS=3.96001e-14	PD=3.6e-07	PS=6.2e-07	simW=2.4e-07 fw=2.4e-07
MI17/I7/avD1_3	I17/I7/avC6	avC67#15	I17/I7/avC8	gnd!#5
+ nmos1v#20ivpcell#20gpdk090	L=1e-07	W=2.4e-07
+ AD=6.72001e-14	AS=1.44001e-14	PD=1.04e-06	PS=3.6e-07	simW=2.4e-07 fw=2.4e-07
MI17/I7/avD1_4	I17/I7/avC7#4	avC67#19	gnd!#62	gnd!#5
+ nmos1v#20ivpcell#20gpdk090	L=1e-07	W=1.2e-07
+ AD=6.96001e-14	AS=6.96001e-14	PD=1.16e-06	PS=1.16e-06	simW=1.2e-07 fw=1.2e-07
MI17/I6/avD1_1	gnd!#52	I17/I6/avC6#9	avC41#38	gnd!#5
+ nmos1v#20ivpcell#20gpdk090	L=1e-07	W=1.2e-07
+ AD=3.96001e-14	AS=6.96001e-14	PD=6.2e-07	PS=1.16e-06	simW=1.2e-07 fw=1.2e-07
MI17/I6/avD1_2	I17/I6/avC8	avC93	gnd!#52	gnd!#5
+ nmos1v#20ivpcell#20gpdk090	L=1e-07	W=2.4e-07
+ AD=1.44001e-14	AS=3.96001e-14	PD=3.6e-07	PS=6.2e-07	simW=2.4e-07 fw=2.4e-07
MI17/I6/avD1_3	I17/I6/avC6	avC67#23	I17/I6/avC8	gnd!#5
+ nmos1v#20ivpcell#20gpdk090	L=1e-07	W=2.4e-07
+ AD=6.72001e-14	AS=1.44001e-14	PD=1.04e-06	PS=3.6e-07	simW=2.4e-07 fw=2.4e-07
MI17/I6/avD1_4	I17/I6/avC7#4	avC67#27	gnd!#55	gnd!#5
+ nmos1v#20ivpcell#20gpdk090	L=1e-07	W=1.2e-07
+ AD=6.96001e-14	AS=6.96001e-14	PD=1.16e-06	PS=1.16e-06	simW=1.2e-07 fw=1.2e-07
MI17/I5/avD1_1	gnd!#45	I17/I5/avC6#9	avC47#34	gnd!#5
+ nmos1v#20ivpcell#20gpdk090	L=1e-07	W=1.2e-07
+ AD=3.96001e-14	AS=6.96001e-14	PD=6.2e-07	PS=1.16e-06	simW=1.2e-07 fw=1.2e-07
MI17/I5/avD1_2	I17/I5/avC8	avC96	gnd!#45	gnd!#5
+ nmos1v#20ivpcell#20gpdk090	L=1e-07	W=2.4e-07
+ AD=1.44001e-14	AS=3.96001e-14	PD=3.6e-07	PS=6.2e-07	simW=2.4e-07 fw=2.4e-07
MI17/I5/avD1_3	I17/I5/avC6	avC67#31	I17/I5/avC8	gnd!#5
+ nmos1v#20ivpcell#20gpdk090	L=1e-07	W=2.4e-07
+ AD=6.72001e-14	AS=1.44001e-14	PD=1.04e-06	PS=3.6e-07	simW=2.4e-07 fw=2.4e-07
MI17/I5/avD1_4	I17/I5/avC7#4	avC67#35	gnd!#48	gnd!#5
+ nmos1v#20ivpcell#20gpdk090	L=1e-07	W=1.2e-07
+ AD=6.96001e-14	AS=6.96001e-14	PD=1.16e-06	PS=1.16e-06	simW=1.2e-07 fw=1.2e-07
MI17/I4/avD1_1	gnd!#38	I17/I4/avC6#9	avC51#34	gnd!#5
+ nmos1v#20ivpcell#20gpdk090	L=1e-07	W=1.2e-07
+ AD=3.96001e-14	AS=6.96001e-14	PD=6.2e-07	PS=1.16e-06	simW=1.2e-07 fw=1.2e-07
MI17/I4/avD1_2	I17/I4/avC8	avC98	gnd!#38	gnd!#5
+ nmos1v#20ivpcell#20gpdk090	L=1e-07	W=2.4e-07
+ AD=1.44001e-14	AS=3.96001e-14	PD=3.6e-07	PS=6.2e-07	simW=2.4e-07 fw=2.4e-07
MI17/I4/avD1_3	I17/I4/avC6	avC67#39	I17/I4/avC8	gnd!#5
+ nmos1v#20ivpcell#20gpdk090	L=1e-07	W=2.4e-07
+ AD=6.72001e-14	AS=1.44001e-14	PD=1.04e-06	PS=3.6e-07	simW=2.4e-07 fw=2.4e-07
MI17/I4/avD1_4	I17/I4/avC7#4	avC67#43	gnd!#41	gnd!#5
+ nmos1v#20ivpcell#20gpdk090	L=1e-07	W=1.2e-07
+ AD=6.96001e-14	AS=6.96001e-14	PD=1.16e-06	PS=1.16e-06	simW=1.2e-07 fw=1.2e-07
MI17/I3/avD1_1	gnd!#31	I17/I3/avC6#9	avC55#41	gnd!#5
+ nmos1v#20ivpcell#20gpdk090	L=1e-07	W=1.2e-07
+ AD=3.96001e-14	AS=6.96001e-14	PD=6.2e-07	PS=1.16e-06	simW=1.2e-07 fw=1.2e-07
MI17/I3/avD1_2	I17/I3/avC8	avC99	gnd!#31	gnd!#5
+ nmos1v#20ivpcell#20gpdk090	L=1e-07	W=2.4e-07
+ AD=1.44001e-14	AS=3.96001e-14	PD=3.6e-07	PS=6.2e-07	simW=2.4e-07 fw=2.4e-07
MI17/I3/avD1_3	I17/I3/avC6	avC67#47	I17/I3/avC8	gnd!#5
+ nmos1v#20ivpcell#20gpdk090	L=1e-07	W=2.4e-07
+ AD=6.72001e-14	AS=1.44001e-14	PD=1.04e-06	PS=3.6e-07	simW=2.4e-07 fw=2.4e-07
MI17/I3/avD1_4	I17/I3/avC7#4	avC67#51	gnd!#34	gnd!#5
+ nmos1v#20ivpcell#20gpdk090	L=1e-07	W=1.2e-07
+ AD=6.96001e-14	AS=6.96001e-14	PD=1.16e-06	PS=1.16e-06	simW=1.2e-07 fw=1.2e-07
MI17/I2/avD1_1	gnd!#23	I17/I2/avC6	avC60#48	gnd!#5
+ nmos1v#20ivpcell#20gpdk090	L=1e-07	W=1.2e-07
+ AD=3.96001e-14	AS=6.96001e-14	PD=6.2e-07	PS=1.16e-06	simW=1.2e-07 fw=1.2e-07
MI17/I2/avD1_2	I17/I2/avC8	avC100	gnd!#23	gnd!#5
+ nmos1v#20ivpcell#20gpdk090	L=1e-07	W=2.4e-07
+ AD=1.44001e-14	AS=3.96001e-14	PD=3.6e-07	PS=6.2e-07	simW=2.4e-07 fw=2.4e-07
MI17/I2/avD1_3	I17/I2/avC6#4	avC67#55	I17/I2/avC8	gnd!#5
+ nmos1v#20ivpcell#20gpdk090	L=1e-07	W=2.4e-07
+ AD=6.72001e-14	AS=1.44001e-14	PD=1.04e-06	PS=3.6e-07	simW=2.4e-07 fw=2.4e-07
MI17/I2/avD1_4	I17/I2/avC7#4	avC67#59	gnd!#26	gnd!#5
+ nmos1v#20ivpcell#20gpdk090	L=1e-07	W=1.2e-07
+ AD=6.96001e-14	AS=6.96001e-14	PD=1.16e-06	PS=1.16e-06	simW=1.2e-07 fw=1.2e-07
MI17/I1/avD1_1	gnd!#15	I17/I1/avC6	avC64#50	gnd!#5
+ nmos1v#20ivpcell#20gpdk090	L=1e-07	W=1.2e-07
+ AD=3.96001e-14	AS=6.96001e-14	PD=6.2e-07	PS=1.16e-06	simW=1.2e-07 fw=1.2e-07
MI17/I1/avD1_2	I17/I1/avC8	avC101	gnd!#15	gnd!#5
+ nmos1v#20ivpcell#20gpdk090	L=1e-07	W=2.4e-07
+ AD=1.44001e-14	AS=3.96001e-14	PD=3.6e-07	PS=6.2e-07	simW=2.4e-07 fw=2.4e-07
MI17/I1/avD1_3	I17/I1/avC6#4	avC67#63	I17/I1/avC8	gnd!#5
+ nmos1v#20ivpcell#20gpdk090	L=1e-07	W=2.4e-07
+ AD=6.72001e-14	AS=1.44001e-14	PD=1.04e-06	PS=3.6e-07	simW=2.4e-07 fw=2.4e-07
MI17/I1/avD1_4	I17/I1/avC7#4	avC67#67	gnd!#19	gnd!#5
+ nmos1v#20ivpcell#20gpdk090	L=1e-07	W=1.2e-07
+ AD=6.96001e-14	AS=6.96001e-14	PD=1.16e-06	PS=1.16e-06	simW=1.2e-07 fw=1.2e-07
MI17/I0/avD1_1	gnd!#9	I17/I0/avC6#9	avC68#46	gnd!#5
+ nmos1v#20ivpcell#20gpdk090	L=1e-07	W=1.2e-07
+ AD=3.96001e-14	AS=6.96001e-14	PD=6.2e-07	PS=1.16e-06	simW=1.2e-07 fw=1.2e-07
MI17/I0/avD1_2	I17/I0/avC8	avC102	gnd!#9	gnd!#5
+ nmos1v#20ivpcell#20gpdk090	L=1e-07	W=2.4e-07
+ AD=1.44001e-14	AS=3.96001e-14	PD=3.6e-07	PS=6.2e-07	simW=2.4e-07 fw=2.4e-07
MI17/I0/avD1_3	I17/I0/avC6	avC67#80	I17/I0/avC8	gnd!#5
+ nmos1v#20ivpcell#20gpdk090	L=1e-07	W=2.4e-07
+ AD=6.72001e-14	AS=1.44001e-14	PD=1.04e-06	PS=3.6e-07	simW=2.4e-07 fw=2.4e-07
MI17/I0/avD1_4	I17/I0/avC7#4	avC67#84	gnd!#12	gnd!#5
+ nmos1v#20ivpcell#20gpdk090	L=1e-07	W=1.2e-07
+ AD=6.96001e-14	AS=6.96001e-14	PD=1.16e-06	PS=1.16e-06	simW=1.2e-07 fw=1.2e-07
MI23/I7/avD1_1	gnd!#118	I23/I7/avC6#9	avC35#21	gnd!#5
+ nmos1v#20ivpcell#20gpdk090	L=1e-07	W=1.2e-07
+ AD=3.96001e-14	AS=6.96001e-14	PD=6.2e-07	PS=1.16e-06	simW=1.2e-07 fw=1.2e-07
MI23/I7/avD1_2	I23/I7/avC8	avC69	gnd!#118	gnd!#5
+ nmos1v#20ivpcell#20gpdk090	L=1e-07	W=2.4e-07
+ AD=1.44001e-14	AS=3.96001e-14	PD=3.6e-07	PS=6.2e-07	simW=2.4e-07 fw=2.4e-07
MI23/I7/avD1_3	I23/I7/avC6	avC62#15	I23/I7/avC8	gnd!#5
+ nmos1v#20ivpcell#20gpdk090	L=1e-07	W=2.4e-07
+ AD=6.72001e-14	AS=1.44001e-14	PD=1.04e-06	PS=3.6e-07	simW=2.4e-07 fw=2.4e-07
MI23/I7/avD1_4	I23/I7/avC7#4	avC62#19	gnd!#121	gnd!#5
+ nmos1v#20ivpcell#20gpdk090	L=1e-07	W=1.2e-07
+ AD=6.96001e-14	AS=6.96001e-14	PD=1.16e-06	PS=1.16e-06	simW=1.2e-07 fw=1.2e-07
MI23/I6/avD1_1	gnd!#111	I23/I6/avC6#9	avC41#27	gnd!#5
+ nmos1v#20ivpcell#20gpdk090	L=1e-07	W=1.2e-07
+ AD=3.96001e-14	AS=6.96001e-14	PD=6.2e-07	PS=1.16e-06	simW=1.2e-07 fw=1.2e-07
MI23/I6/avD1_2	I23/I6/avC8	avC71	gnd!#111	gnd!#5
+ nmos1v#20ivpcell#20gpdk090	L=1e-07	W=2.4e-07
+ AD=1.44001e-14	AS=3.96001e-14	PD=3.6e-07	PS=6.2e-07	simW=2.4e-07 fw=2.4e-07
MI23/I6/avD1_3	I23/I6/avC6	avC62#23	I23/I6/avC8	gnd!#5
+ nmos1v#20ivpcell#20gpdk090	L=1e-07	W=2.4e-07
+ AD=6.72001e-14	AS=1.44001e-14	PD=1.04e-06	PS=3.6e-07	simW=2.4e-07 fw=2.4e-07
MI23/I6/avD1_4	I23/I6/avC7#4	avC62#27	gnd!#114	gnd!#5
+ nmos1v#20ivpcell#20gpdk090	L=1e-07	W=1.2e-07
+ AD=6.96001e-14	AS=6.96001e-14	PD=1.16e-06	PS=1.16e-06	simW=1.2e-07 fw=1.2e-07
MI23/I5/avD1_1	gnd!#104	I23/I5/avC6#9	avC47#22	gnd!#5
+ nmos1v#20ivpcell#20gpdk090	L=1e-07	W=1.2e-07
+ AD=3.96001e-14	AS=6.96001e-14	PD=6.2e-07	PS=1.16e-06	simW=1.2e-07 fw=1.2e-07
MI23/I5/avD1_2	I23/I5/avC8	avC72	gnd!#104	gnd!#5
+ nmos1v#20ivpcell#20gpdk090	L=1e-07	W=2.4e-07
+ AD=1.44001e-14	AS=3.96001e-14	PD=3.6e-07	PS=6.2e-07	simW=2.4e-07 fw=2.4e-07
MI23/I5/avD1_3	I23/I5/avC6	avC62#31	I23/I5/avC8	gnd!#5
+ nmos1v#20ivpcell#20gpdk090	L=1e-07	W=2.4e-07
+ AD=6.72001e-14	AS=1.44001e-14	PD=1.04e-06	PS=3.6e-07	simW=2.4e-07 fw=2.4e-07
MI23/I5/avD1_4	I23/I5/avC7#4	avC62#35	gnd!#107	gnd!#5
+ nmos1v#20ivpcell#20gpdk090	L=1e-07	W=1.2e-07
+ AD=6.96001e-14	AS=6.96001e-14	PD=1.16e-06	PS=1.16e-06	simW=1.2e-07 fw=1.2e-07
MI23/I4/avD1_1	gnd!#97	I23/I4/avC6#9	avC51#22	gnd!#5
+ nmos1v#20ivpcell#20gpdk090	L=1e-07	W=1.2e-07
+ AD=3.96001e-14	AS=6.96001e-14	PD=6.2e-07	PS=1.16e-06	simW=1.2e-07 fw=1.2e-07
MI23/I4/avD1_2	I23/I4/avC8	avC76	gnd!#97	gnd!#5
+ nmos1v#20ivpcell#20gpdk090	L=1e-07	W=2.4e-07
+ AD=1.44001e-14	AS=3.96001e-14	PD=3.6e-07	PS=6.2e-07	simW=2.4e-07 fw=2.4e-07
MI23/I4/avD1_3	I23/I4/avC6	avC62#39	I23/I4/avC8	gnd!#5
+ nmos1v#20ivpcell#20gpdk090	L=1e-07	W=2.4e-07
+ AD=6.72001e-14	AS=1.44001e-14	PD=1.04e-06	PS=3.6e-07	simW=2.4e-07 fw=2.4e-07
MI23/I4/avD1_4	I23/I4/avC7#4	avC62#43	gnd!#100	gnd!#5
+ nmos1v#20ivpcell#20gpdk090	L=1e-07	W=1.2e-07
+ AD=6.96001e-14	AS=6.96001e-14	PD=1.16e-06	PS=1.16e-06	simW=1.2e-07 fw=1.2e-07
MI23/I3/avD1_1	gnd!#90	I23/I3/avC6#9	avC55#27	gnd!#5
+ nmos1v#20ivpcell#20gpdk090	L=1e-07	W=1.2e-07
+ AD=3.96001e-14	AS=6.96001e-14	PD=6.2e-07	PS=1.16e-06	simW=1.2e-07 fw=1.2e-07
MI23/I3/avD1_2	I23/I3/avC8	avC78	gnd!#90	gnd!#5
+ nmos1v#20ivpcell#20gpdk090	L=1e-07	W=2.4e-07
+ AD=1.44001e-14	AS=3.96001e-14	PD=3.6e-07	PS=6.2e-07	simW=2.4e-07 fw=2.4e-07
MI23/I3/avD1_3	I23/I3/avC6	avC62#47	I23/I3/avC8	gnd!#5
+ nmos1v#20ivpcell#20gpdk090	L=1e-07	W=2.4e-07
+ AD=6.72001e-14	AS=1.44001e-14	PD=1.04e-06	PS=3.6e-07	simW=2.4e-07 fw=2.4e-07
MI23/I3/avD1_4	I23/I3/avC7#4	avC62#51	gnd!#93	gnd!#5
+ nmos1v#20ivpcell#20gpdk090	L=1e-07	W=1.2e-07
+ AD=6.96001e-14	AS=6.96001e-14	PD=1.16e-06	PS=1.16e-06	simW=1.2e-07 fw=1.2e-07
MI23/I2/avD1_1	gnd!#82	I23/I2/avC6#9	avC60#28	gnd!#5
+ nmos1v#20ivpcell#20gpdk090	L=1e-07	W=1.2e-07
+ AD=3.96001e-14	AS=6.96001e-14	PD=6.2e-07	PS=1.16e-06	simW=1.2e-07 fw=1.2e-07
MI23/I2/avD1_2	I23/I2/avC8	avC81	gnd!#82	gnd!#5
+ nmos1v#20ivpcell#20gpdk090	L=1e-07	W=2.4e-07
+ AD=1.44001e-14	AS=3.96001e-14	PD=3.6e-07	PS=6.2e-07	simW=2.4e-07 fw=2.4e-07
MI23/I2/avD1_3	I23/I2/avC6	avC62#55	I23/I2/avC8	gnd!#5
+ nmos1v#20ivpcell#20gpdk090	L=1e-07	W=2.4e-07
+ AD=6.72001e-14	AS=1.44001e-14	PD=1.04e-06	PS=3.6e-07	simW=2.4e-07 fw=2.4e-07
MI23/I2/avD1_4	I23/I2/avC7#4	avC62#59	gnd!#85	gnd!#5
+ nmos1v#20ivpcell#20gpdk090	L=1e-07	W=1.2e-07
+ AD=6.96001e-14	AS=6.96001e-14	PD=1.16e-06	PS=1.16e-06	simW=1.2e-07 fw=1.2e-07
MI23/I1/avD1_1	gnd!#74	I23/I1/avC6#9	avC64#13	gnd!#5
+ nmos1v#20ivpcell#20gpdk090	L=1e-07	W=1.2e-07
+ AD=3.96001e-14	AS=6.96001e-14	PD=6.2e-07	PS=1.16e-06	simW=1.2e-07 fw=1.2e-07
MI23/I1/avD1_2	I23/I1/avC8	avC83	gnd!#74	gnd!#5
+ nmos1v#20ivpcell#20gpdk090	L=1e-07	W=2.4e-07
+ AD=1.44001e-14	AS=3.96001e-14	PD=3.6e-07	PS=6.2e-07	simW=2.4e-07 fw=2.4e-07
MI23/I1/avD1_3	I23/I1/avC6	avC62#63	I23/I1/avC8	gnd!#5
+ nmos1v#20ivpcell#20gpdk090	L=1e-07	W=2.4e-07
+ AD=6.72001e-14	AS=1.44001e-14	PD=1.04e-06	PS=3.6e-07	simW=2.4e-07 fw=2.4e-07
MI23/I1/avD1_4	I23/I1/avC7#4	avC62#67	gnd!#78	gnd!#5
+ nmos1v#20ivpcell#20gpdk090	L=1e-07	W=1.2e-07
+ AD=6.96001e-14	AS=6.96001e-14	PD=1.16e-06	PS=1.16e-06	simW=1.2e-07 fw=1.2e-07
MI23/I0/avD1_1	gnd!#67	I23/I0/avC6#9	avC68#13	gnd!#5
+ nmos1v#20ivpcell#20gpdk090	L=1e-07	W=1.2e-07
+ AD=3.96001e-14	AS=6.96001e-14	PD=6.2e-07	PS=1.16e-06	simW=1.2e-07 fw=1.2e-07
MI23/I0/avD1_2	I23/I0/avC8	avC86	gnd!#67	gnd!#5
+ nmos1v#20ivpcell#20gpdk090	L=1e-07	W=2.4e-07
+ AD=1.44001e-14	AS=3.96001e-14	PD=3.6e-07	PS=6.2e-07	simW=2.4e-07 fw=2.4e-07
MI23/I0/avD1_3	I23/I0/avC6	avC62#80	I23/I0/avC8	gnd!#5
+ nmos1v#20ivpcell#20gpdk090	L=1e-07	W=2.4e-07
+ AD=6.72001e-14	AS=1.44001e-14	PD=1.04e-06	PS=3.6e-07	simW=2.4e-07 fw=2.4e-07
MI23/I0/avD1_4	I23/I0/avC7#4	avC62#84	gnd!#70	gnd!#5
+ nmos1v#20ivpcell#20gpdk090	L=1e-07	W=1.2e-07
+ AD=6.96001e-14	AS=6.96001e-14	PD=1.16e-06	PS=1.16e-06	simW=1.2e-07 fw=1.2e-07
MI18/I7/avD1_1	gnd!#177	I18/I7/avC6#9	avC35	gnd!#5
+ nmos1v#20ivpcell#20gpdk090	L=1e-07	W=1.2e-07
+ AD=3.96001e-14	AS=6.96001e-14	PD=6.2e-07	PS=1.16e-06	simW=1.2e-07 fw=1.2e-07
MI18/I7/avD1_2	I18/I7/avC8	avC38	gnd!#177	gnd!#5
+ nmos1v#20ivpcell#20gpdk090	L=1e-07	W=2.4e-07
+ AD=1.44001e-14	AS=3.96001e-14	PD=3.6e-07	PS=6.2e-07	simW=2.4e-07 fw=2.4e-07
MI18/I7/avD1_3	I18/I7/avC6	avC57#4	I18/I7/avC8	gnd!#5
+ nmos1v#20ivpcell#20gpdk090	L=1e-07	W=2.4e-07
+ AD=6.72001e-14	AS=1.44001e-14	PD=1.04e-06	PS=3.6e-07	simW=2.4e-07 fw=2.4e-07
MI18/I7/avD1_4	I18/I7/avC7#4	avC57#8	gnd!#180	gnd!#5
+ nmos1v#20ivpcell#20gpdk090	L=1e-07	W=1.2e-07
+ AD=6.96001e-14	AS=6.96001e-14	PD=1.16e-06	PS=1.16e-06	simW=1.2e-07 fw=1.2e-07
MI18/I6/avD1_1	gnd!#170	I18/I6/avC6#9	avC41	gnd!#5
+ nmos1v#20ivpcell#20gpdk090	L=1e-07	W=1.2e-07
+ AD=3.96001e-14	AS=6.96001e-14	PD=6.2e-07	PS=1.16e-06	simW=1.2e-07 fw=1.2e-07
MI18/I6/avD1_2	I18/I6/avC8	avC43	gnd!#170	gnd!#5
+ nmos1v#20ivpcell#20gpdk090	L=1e-07	W=2.4e-07
+ AD=1.44001e-14	AS=3.96001e-14	PD=3.6e-07	PS=6.2e-07	simW=2.4e-07 fw=2.4e-07
MI18/I6/avD1_3	I18/I6/avC6	avC57#12	I18/I6/avC8	gnd!#5
+ nmos1v#20ivpcell#20gpdk090	L=1e-07	W=2.4e-07
+ AD=6.72001e-14	AS=1.44001e-14	PD=1.04e-06	PS=3.6e-07	simW=2.4e-07 fw=2.4e-07
MI18/I6/avD1_4	I18/I6/avC7#4	avC57#16	gnd!#173	gnd!#5
+ nmos1v#20ivpcell#20gpdk090	L=1e-07	W=1.2e-07
+ AD=6.96001e-14	AS=6.96001e-14	PD=1.16e-06	PS=1.16e-06	simW=1.2e-07 fw=1.2e-07
MI18/I5/avD1_1	gnd!#163	I18/I5/avC6#9	avC47	gnd!#5
+ nmos1v#20ivpcell#20gpdk090	L=1e-07	W=1.2e-07
+ AD=3.96001e-14	AS=6.96001e-14	PD=6.2e-07	PS=1.16e-06	simW=1.2e-07 fw=1.2e-07
MI18/I5/avD1_2	I18/I5/avC8	avC45	gnd!#163	gnd!#5
+ nmos1v#20ivpcell#20gpdk090	L=1e-07	W=2.4e-07
+ AD=1.44001e-14	AS=3.96001e-14	PD=3.6e-07	PS=6.2e-07	simW=2.4e-07 fw=2.4e-07
MI18/I5/avD1_3	I18/I5/avC6	avC57#20	I18/I5/avC8	gnd!#5
+ nmos1v#20ivpcell#20gpdk090	L=1e-07	W=2.4e-07
+ AD=6.72001e-14	AS=1.44001e-14	PD=1.04e-06	PS=3.6e-07	simW=2.4e-07 fw=2.4e-07
MI18/I5/avD1_4	I18/I5/avC7#4	avC57#24	gnd!#166	gnd!#5
+ nmos1v#20ivpcell#20gpdk090	L=1e-07	W=1.2e-07
+ AD=6.96001e-14	AS=6.96001e-14	PD=1.16e-06	PS=1.16e-06	simW=1.2e-07 fw=1.2e-07
MI18/I4/avD1_1	gnd!#156	I18/I4/avC6#9	avC51	gnd!#5
+ nmos1v#20ivpcell#20gpdk090	L=1e-07	W=1.2e-07
+ AD=3.96001e-14	AS=6.96001e-14	PD=6.2e-07	PS=1.16e-06	simW=1.2e-07 fw=1.2e-07
MI18/I4/avD1_2	I18/I4/avC8	avC50	gnd!#156	gnd!#5
+ nmos1v#20ivpcell#20gpdk090	L=1e-07	W=2.4e-07
+ AD=1.44001e-14	AS=3.96001e-14	PD=3.6e-07	PS=6.2e-07	simW=2.4e-07 fw=2.4e-07
MI18/I4/avD1_3	I18/I4/avC6	avC57#28	I18/I4/avC8	gnd!#5
+ nmos1v#20ivpcell#20gpdk090	L=1e-07	W=2.4e-07
+ AD=6.72001e-14	AS=1.44001e-14	PD=1.04e-06	PS=3.6e-07	simW=2.4e-07 fw=2.4e-07
MI18/I4/avD1_4	I18/I4/avC7#4	avC57#32	gnd!#159	gnd!#5
+ nmos1v#20ivpcell#20gpdk090	L=1e-07	W=1.2e-07
+ AD=6.96001e-14	AS=6.96001e-14	PD=1.16e-06	PS=1.16e-06	simW=1.2e-07 fw=1.2e-07
MI18/I3/avD1_1	gnd!#149	I18/I3/avC6#9	avC55	gnd!#5
+ nmos1v#20ivpcell#20gpdk090	L=1e-07	W=1.2e-07
+ AD=3.96001e-14	AS=6.96001e-14	PD=6.2e-07	PS=1.16e-06	simW=1.2e-07 fw=1.2e-07
MI18/I3/avD1_2	I18/I3/avC8	avC54	gnd!#149	gnd!#5
+ nmos1v#20ivpcell#20gpdk090	L=1e-07	W=2.4e-07
+ AD=1.44001e-14	AS=3.96001e-14	PD=3.6e-07	PS=6.2e-07	simW=2.4e-07 fw=2.4e-07
MI18/I3/avD1_3	I18/I3/avC6	avC57#36	I18/I3/avC8	gnd!#5
+ nmos1v#20ivpcell#20gpdk090	L=1e-07	W=2.4e-07
+ AD=6.72001e-14	AS=1.44001e-14	PD=1.04e-06	PS=3.6e-07	simW=2.4e-07 fw=2.4e-07
MI18/I3/avD1_4	I18/I3/avC7#4	avC57#40	gnd!#152	gnd!#5
+ nmos1v#20ivpcell#20gpdk090	L=1e-07	W=1.2e-07
+ AD=6.96001e-14	AS=6.96001e-14	PD=1.16e-06	PS=1.16e-06	simW=1.2e-07 fw=1.2e-07
MI18/I2/avD1_1	gnd!#141	I18/I2/avC6#9	avC60	gnd!#5
+ nmos1v#20ivpcell#20gpdk090	L=1e-07	W=1.2e-07
+ AD=3.96001e-14	AS=6.96001e-14	PD=6.2e-07	PS=1.16e-06	simW=1.2e-07 fw=1.2e-07
MI18/I2/avD1_2	I18/I2/avC8	avC58	gnd!#141	gnd!#5
+ nmos1v#20ivpcell#20gpdk090	L=1e-07	W=2.4e-07
+ AD=1.44001e-14	AS=3.96001e-14	PD=3.6e-07	PS=6.2e-07	simW=2.4e-07 fw=2.4e-07
MI18/I2/avD1_3	I18/I2/avC6	avC57#44	I18/I2/avC8	gnd!#5
+ nmos1v#20ivpcell#20gpdk090	L=1e-07	W=2.4e-07
+ AD=6.72001e-14	AS=1.44001e-14	PD=1.04e-06	PS=3.6e-07	simW=2.4e-07 fw=2.4e-07
MI18/I2/avD1_4	I18/I2/avC7#4	avC57#48	gnd!#144	gnd!#5
+ nmos1v#20ivpcell#20gpdk090	L=1e-07	W=1.2e-07
+ AD=6.96001e-14	AS=6.96001e-14	PD=1.16e-06	PS=1.16e-06	simW=1.2e-07 fw=1.2e-07
MI18/I1/avD1_1	gnd!#133	I18/I1/avC6#9	avC64	gnd!#5
+ nmos1v#20ivpcell#20gpdk090	L=1e-07	W=1.2e-07
+ AD=3.96001e-14	AS=6.96001e-14	PD=6.2e-07	PS=1.16e-06	simW=1.2e-07 fw=1.2e-07
MI18/I1/avD1_2	I18/I1/avC8	avC63	gnd!#133	gnd!#5
+ nmos1v#20ivpcell#20gpdk090	L=1e-07	W=2.4e-07
+ AD=1.44001e-14	AS=3.96001e-14	PD=3.6e-07	PS=6.2e-07	simW=2.4e-07 fw=2.4e-07
MI18/I1/avD1_3	I18/I1/avC6	avC57#62	I18/I1/avC8	gnd!#5
+ nmos1v#20ivpcell#20gpdk090	L=1e-07	W=2.4e-07
+ AD=6.72001e-14	AS=1.44001e-14	PD=1.04e-06	PS=3.6e-07	simW=2.4e-07 fw=2.4e-07
MI18/I1/avD1_4	I18/I1/avC7#4	avC57#66	gnd!#137	gnd!#5
+ nmos1v#20ivpcell#20gpdk090	L=1e-07	W=1.2e-07
+ AD=6.96001e-14	AS=6.96001e-14	PD=1.16e-06	PS=1.16e-06	simW=1.2e-07 fw=1.2e-07
MI18/I0/avD1_1	gnd!#126	I18/I0/avC6#9	avC68#6	gnd!#5
+ nmos1v#20ivpcell#20gpdk090	L=1e-07	W=1.2e-07
+ AD=3.96001e-14	AS=6.96001e-14	PD=6.2e-07	PS=1.16e-06	simW=1.2e-07 fw=1.2e-07
MI18/I0/avD1_2	I18/I0/avC8	avC66	gnd!#126	gnd!#5
+ nmos1v#20ivpcell#20gpdk090	L=1e-07	W=2.4e-07
+ AD=1.44001e-14	AS=3.96001e-14	PD=3.6e-07	PS=6.2e-07	simW=2.4e-07 fw=2.4e-07
MI18/I0/avD1_3	I18/I0/avC6	avC57#77	I18/I0/avC8	gnd!#5
+ nmos1v#20ivpcell#20gpdk090	L=1e-07	W=2.4e-07
+ AD=6.72001e-14	AS=1.44001e-14	PD=1.04e-06	PS=3.6e-07	simW=2.4e-07 fw=2.4e-07
MI18/I0/avD1_4	I18/I0/avC7#4	avC57#81	gnd!#129	gnd!#5
+ nmos1v#20ivpcell#20gpdk090	L=1e-07	W=1.2e-07
+ AD=6.96001e-14	AS=6.96001e-14	PD=1.16e-06	PS=1.16e-06	simW=1.2e-07 fw=1.2e-07
MI27/I7/avD1_1	gnd!#323	I27/I7/avC6	avC35#47	gnd!#5
+ nmos1v#20ivpcell#20gpdk090	L=1e-07	W=1.2e-07
+ AD=3.96001e-14	AS=6.96001e-14	PD=6.2e-07	PS=1.16e-06	simW=1.2e-07 fw=1.2e-07
MI27/I7/avD1_2	I27/I7/avC8	avC92	gnd!#323	gnd!#5
+ nmos1v#20ivpcell#20gpdk090	L=1e-07	W=2.4e-07
+ AD=1.44001e-14	AS=3.96001e-14	PD=3.6e-07	PS=6.2e-07	simW=2.4e-07 fw=2.4e-07
MI27/I7/avD1_3	I27/I7/avC6#4	avC106#4	I27/I7/avC8	gnd!#5
+ nmos1v#20ivpcell#20gpdk090	L=1e-07	W=2.4e-07
+ AD=6.72001e-14	AS=1.44001e-14	PD=1.04e-06	PS=3.6e-07	simW=2.4e-07 fw=2.4e-07
MI27/I7/avD1_4	I27/I7/avC7#4	avC106#8	gnd!#329	gnd!#5
+ nmos1v#20ivpcell#20gpdk090	L=1e-07	W=1.2e-07
+ AD=6.96001e-14	AS=6.96001e-14	PD=1.16e-06	PS=1.16e-06	simW=1.2e-07 fw=1.2e-07
MI27/I6/avD1_1	gnd!#310	I27/I6/avC6#9	avC41#51	gnd!#5
+ nmos1v#20ivpcell#20gpdk090	L=1e-07	W=1.2e-07
+ AD=3.96001e-14	AS=6.96001e-14	PD=6.2e-07	PS=1.16e-06	simW=1.2e-07 fw=1.2e-07
MI27/I6/avD1_2	I27/I6/avC8	avC95	gnd!#310	gnd!#5
+ nmos1v#20ivpcell#20gpdk090	L=1e-07	W=2.4e-07
+ AD=1.44001e-14	AS=3.96001e-14	PD=3.6e-07	PS=6.2e-07	simW=2.4e-07 fw=2.4e-07
MI27/I6/avD1_3	I27/I6/avC6	avC106#12	I27/I6/avC8	gnd!#5
+ nmos1v#20ivpcell#20gpdk090	L=1e-07	W=2.4e-07
+ AD=6.72001e-14	AS=1.44001e-14	PD=1.04e-06	PS=3.6e-07	simW=2.4e-07 fw=2.4e-07
MI27/I6/avD1_4	I27/I6/avC7#4	avC106#16	gnd!#316	gnd!#5
+ nmos1v#20ivpcell#20gpdk090	L=1e-07	W=1.2e-07
+ AD=6.96001e-14	AS=6.96001e-14	PD=1.16e-06	PS=1.16e-06	simW=1.2e-07 fw=1.2e-07
MI27/I5/avD1_1	gnd!#297	I27/I5/avC6#9	avC47#51	gnd!#5
+ nmos1v#20ivpcell#20gpdk090	L=1e-07	W=1.2e-07
+ AD=3.96001e-14	AS=6.96001e-14	PD=6.2e-07	PS=1.16e-06	simW=1.2e-07 fw=1.2e-07
MI27/I5/avD1_2	I27/I5/avC8	avC97	gnd!#297	gnd!#5
+ nmos1v#20ivpcell#20gpdk090	L=1e-07	W=2.4e-07
+ AD=1.44001e-14	AS=3.96001e-14	PD=3.6e-07	PS=6.2e-07	simW=2.4e-07 fw=2.4e-07
MI27/I5/avD1_3	I27/I5/avC6	avC106#20	I27/I5/avC8	gnd!#5
+ nmos1v#20ivpcell#20gpdk090	L=1e-07	W=2.4e-07
+ AD=6.72001e-14	AS=1.44001e-14	PD=1.04e-06	PS=3.6e-07	simW=2.4e-07 fw=2.4e-07
MI27/I5/avD1_4	I27/I5/avC7#4	avC106#24	gnd!#303	gnd!#5
+ nmos1v#20ivpcell#20gpdk090	L=1e-07	W=1.2e-07
+ AD=6.96001e-14	AS=6.96001e-14	PD=1.16e-06	PS=1.16e-06	simW=1.2e-07 fw=1.2e-07
MI27/I4/avD1_1	gnd!#283	I27/I4/avC6#9	avC51#50	gnd!#5
+ nmos1v#20ivpcell#20gpdk090	L=1e-07	W=1.2e-07
+ AD=3.96001e-14	AS=6.96001e-14	PD=6.2e-07	PS=1.16e-06	simW=1.2e-07 fw=1.2e-07
MI27/I4/avD1_2	I27/I4/avC8	avC84#14	gnd!#283	gnd!#5
+ nmos1v#20ivpcell#20gpdk090	L=1e-07	W=2.4e-07
+ AD=1.44001e-14	AS=3.96001e-14	PD=3.6e-07	PS=6.2e-07	simW=2.4e-07 fw=2.4e-07
MI27/I4/avD1_3	I27/I4/avC6	avC106#28	I27/I4/avC8	gnd!#5
+ nmos1v#20ivpcell#20gpdk090	L=1e-07	W=2.4e-07
+ AD=6.72001e-14	AS=1.44001e-14	PD=1.04e-06	PS=3.6e-07	simW=2.4e-07 fw=2.4e-07
MI27/I4/avD1_4	I27/I4/avC7#4	avC106#32	gnd!#290	gnd!#5
+ nmos1v#20ivpcell#20gpdk090	L=1e-07	W=1.2e-07
+ AD=6.96001e-14	AS=6.96001e-14	PD=1.16e-06	PS=1.16e-06	simW=1.2e-07 fw=1.2e-07
MI27/I3/avD1_1	gnd!#270	I27/I3/avC6#9	avC55#56	gnd!#5
+ nmos1v#20ivpcell#20gpdk090	L=1e-07	W=1.2e-07
+ AD=3.96001e-14	AS=6.96001e-14	PD=6.2e-07	PS=1.16e-06	simW=1.2e-07 fw=1.2e-07
MI27/I3/avD1_2	I27/I3/avC8	avC73#16	gnd!#270	gnd!#5
+ nmos1v#20ivpcell#20gpdk090	L=1e-07	W=2.4e-07
+ AD=1.44001e-14	AS=3.96001e-14	PD=3.6e-07	PS=6.2e-07	simW=2.4e-07 fw=2.4e-07
MI27/I3/avD1_3	I27/I3/avC6	avC106#36	I27/I3/avC8	gnd!#5
+ nmos1v#20ivpcell#20gpdk090	L=1e-07	W=2.4e-07
+ AD=6.72001e-14	AS=1.44001e-14	PD=1.04e-06	PS=3.6e-07	simW=2.4e-07 fw=2.4e-07
MI27/I3/avD1_4	I27/I3/avC7#4	avC106#40	gnd!#277	gnd!#5
+ nmos1v#20ivpcell#20gpdk090	L=1e-07	W=1.2e-07
+ AD=6.96001e-14	AS=6.96001e-14	PD=1.16e-06	PS=1.16e-06	simW=1.2e-07 fw=1.2e-07
MI27/I2/avD1_1	gnd!#256	I27/I2/avC6#9	avC60#58	gnd!#5
+ nmos1v#20ivpcell#20gpdk090	L=1e-07	W=1.2e-07
+ AD=3.96001e-14	AS=6.96001e-14	PD=6.2e-07	PS=1.16e-06	simW=1.2e-07 fw=1.2e-07
MI27/I2/avD1_2	I27/I2/avC8	avC65#11	gnd!#256	gnd!#5
+ nmos1v#20ivpcell#20gpdk090	L=1e-07	W=2.4e-07
+ AD=1.44001e-14	AS=3.96001e-14	PD=3.6e-07	PS=6.2e-07	simW=2.4e-07 fw=2.4e-07
MI27/I2/avD1_3	I27/I2/avC6	avC106#44	I27/I2/avC8	gnd!#5
+ nmos1v#20ivpcell#20gpdk090	L=1e-07	W=2.4e-07
+ AD=6.72001e-14	AS=1.44001e-14	PD=1.04e-06	PS=3.6e-07	simW=2.4e-07 fw=2.4e-07
MI27/I2/avD1_4	I27/I2/avC7#4	avC106#48	gnd!#263	gnd!#5
+ nmos1v#20ivpcell#20gpdk090	L=1e-07	W=1.2e-07
+ AD=6.96001e-14	AS=6.96001e-14	PD=1.16e-06	PS=1.16e-06	simW=1.2e-07 fw=1.2e-07
MI27/I1/avD1_1	gnd!#242	I27/I1/avC6#9	avC64#57	gnd!#5
+ nmos1v#20ivpcell#20gpdk090	L=1e-07	W=1.2e-07
+ AD=3.96001e-14	AS=6.96001e-14	PD=6.2e-07	PS=1.16e-06	simW=1.2e-07 fw=1.2e-07
MI27/I1/avD1_2	I27/I1/avC8	avC48#16	gnd!#242	gnd!#5
+ nmos1v#20ivpcell#20gpdk090	L=1e-07	W=2.4e-07
+ AD=1.44001e-14	AS=3.96001e-14	PD=3.6e-07	PS=6.2e-07	simW=2.4e-07 fw=2.4e-07
MI27/I1/avD1_3	I27/I1/avC6	avC106#52	I27/I1/avC8	gnd!#5
+ nmos1v#20ivpcell#20gpdk090	L=1e-07	W=2.4e-07
+ AD=6.72001e-14	AS=1.44001e-14	PD=1.04e-06	PS=3.6e-07	simW=2.4e-07 fw=2.4e-07
MI27/I1/avD1_4	I27/I1/avC7#4	avC106#56	gnd!#249	gnd!#5
+ nmos1v#20ivpcell#20gpdk090	L=1e-07	W=1.2e-07
+ AD=6.96001e-14	AS=6.96001e-14	PD=1.16e-06	PS=1.16e-06	simW=1.2e-07 fw=1.2e-07
MI27/I0/avD1_1	gnd!#232	I27/I0/avC6#9	avC68#59	gnd!#5
+ nmos1v#20ivpcell#20gpdk090	L=1e-07	W=1.2e-07
+ AD=3.96001e-14	AS=6.96001e-14	PD=6.2e-07	PS=1.16e-06	simW=1.2e-07 fw=1.2e-07
MI27/I0/avD1_2	I27/I0/avC8	avC36#11	gnd!#232	gnd!#5
+ nmos1v#20ivpcell#20gpdk090	L=1e-07	W=2.4e-07
+ AD=1.44001e-14	AS=3.96001e-14	PD=3.6e-07	PS=6.2e-07	simW=2.4e-07 fw=2.4e-07
MI27/I0/avD1_3	I27/I0/avC6	avC106#68	I27/I0/avC8	gnd!#5
+ nmos1v#20ivpcell#20gpdk090	L=1e-07	W=2.4e-07
+ AD=6.72001e-14	AS=1.44001e-14	PD=1.04e-06	PS=3.6e-07	simW=2.4e-07 fw=2.4e-07
MI27/I0/avD1_4	I27/I0/avC7#4	avC106#72	gnd!#235	gnd!#5
+ nmos1v#20ivpcell#20gpdk090	L=1e-07	W=1.2e-07
+ AD=6.96001e-14	AS=6.96001e-14	PD=1.16e-06	PS=1.16e-06	simW=1.2e-07 fw=1.2e-07
MI19/I7/avD1_1	gnd!#238	I19/I7/avC6#3	avC35#60	gnd!#5
+ nmos1v#20ivpcell#20gpdk090	L=1e-07	W=1.2e-07
+ AD=3.96001e-14	AS=6.96001e-14	PD=6.2e-07	PS=1.16e-06	simW=1.2e-07 fw=1.2e-07
MI19/I7/avD1_2	I19/I7/avC8	avC94#16	gnd!#238	gnd!#5
+ nmos1v#20ivpcell#20gpdk090	L=1e-07	W=2.4e-07
+ AD=1.44001e-14	AS=3.96001e-14	PD=3.6e-07	PS=6.2e-07	simW=2.4e-07 fw=2.4e-07
MI19/I7/avD1_3	I19/I7/avC6#8	avC52#83	I19/I7/avC8	gnd!#5
+ nmos1v#20ivpcell#20gpdk090	L=1e-07	W=2.4e-07
[...]
C56652	CLK#598	gnd!	8.3216e-19	$X=8.7565 $Y=2.1905
C56653	CLK#599	gnd!	1.08865e-18	$X=6.5515 $Y=3.053
C56654	CLK#601	gnd!	2.81344e-18	$X=7.4775 $Y=3.8335
C56655	CLK#602	gnd!	1.36263e-18	$X=8.7565 $Y=4.842
C56656	CLK#603	gnd!	1.86183e-18	$X=4.3605 $Y=1.3905
C56657	CLK#605	gnd!	1.45851e-18	$X=4.7335 $Y=1.7515
C56658	CLK#606	gnd!	2.76789e-18	$X=5.262 $Y=2.1905
C56659	CLK#607	gnd!	1.51349e-18	$X=4.3605 $Y=3.053
C56660	CLK#609	gnd!	2.19684e-18	$X=4.7335 $Y=3.8335
C56661	CLK#610	gnd!	1.45581e-18	$X=5.262 $Y=4.842
C56662	CLK#611	gnd!	1.9511e-18	$X=2.1695 $Y=1.3905
C56663	CLK#613	gnd!	1.75297e-18	$X=1.9895 $Y=1.7515
C56664	CLK#614	gnd!	2.45299e-19	$X=1.769 $Y=2.1915
C56665	CLK#615	gnd!	8.73158e-19	$X=2.1695 $Y=3.053
C56666	CLK#617	gnd!	1.82484e-18	$X=1.9895 $Y=3.8335
C56667	CLK#618	gnd!	1.70437e-18	$X=1.789 $Y=4.9105
C56668	avC90#64	gnd!	1.42418e-18	$X=55.414 $Y=1.473
C56669	avC90#65	gnd!	6.86513e-18	$X=56.403 $Y=1.5385
C56670	avC90#66	gnd!	2.50125e-18	$X=48.676 $Y=1.468
C56671	I10/avC11#2	gnd!	1.085e-18	$X=76.288 $Y=5.0195
C56672	I10/avC11#6	gnd!	3.97302e-18	$X=55.385 $Y=4.293
C56673	avC103#9	gnd!	6.11494e-19	$X=69.4935 $Y=2.855
C56674	I10/avC9#5	gnd!	8.97657e-18	$X=53.128 $Y=4.0275
C56675	I4/avC43#14	gnd!	1.28561e-18	$X=49.5005 $Y=0.132
C56676	I4/avC43#15	gnd!	1.44016e-18	$X=43.9595 $Y=0.126
C56677	I4/avC43#16	gnd!	2.82248e-19	$X=49.543 $Y=0.0785
C56678	I25/avC6#6	gnd!	5.63152e-18	$X=53.057 $Y=2.7895
C56679	I4/I7/avC9#6	gnd!	5.5852e-19	$X=82.16 $Y=1.7005
C56680	I4/I7/avC10#6	gnd!	1.477e-19	$X=82.406 $Y=0.533
C56681	I25/avC6#8	gnd!	4.84923e-18	$X=36.2315 $Y=1.4095
C56682	avC105#57	gnd!	2.23029e-18	$X=63.296 $Y=5.0195
C56683	avC105#62	gnd!	2.86073e-16	$X=1.779 $Y=0.4615
C56684	avC105#63	gnd!	1.31911e-17	$X=5.9505 $Y=2.2885
C56685	avC107#26	gnd!	2.22051e-18	$X=57.7055 $Y=0.7355
C56686	avC104#7	gnd!	8.44247e-18	$X=68.059 $Y=2.448
C56687	avC103#14	gnd!	3.07893e-18	$X=74.3745 $Y=0.562
C56688	avC103#18	gnd!	1.25852e-19	$X=70.0385 $Y=1.3775
C56689	avC106#79	gnd!	1.57217e-18	$X=73.057 $Y=4.7085
C56690	avC42#17	gnd!	1.11995e-18	$X=56.9015 $Y=2.5055
C56691	I4/I7/avC11#16	gnd!	6.15309e-19	$X=63.517 $Y=0.7915
C56692	I4/I7/avC11#17	gnd!	4.74547e-19	$X=71.676 $Y=1.0885
C56693	vdd!#388	gnd!	1.31836e-18	$X=42.0455 $Y=3.71
C56694	vdd!#395	gnd!	1.17869e-18	$X=71.1155 $Y=5.7885
C56695	vdd!#399	gnd!	2.32476e-18	$X=64.4255 $Y=5.3185
C56696	vdd!#402	gnd!	1.47595e-18	$X=63.318 $Y=6.0655
C56697	vdd!#405	gnd!	9.70876e-19	$X=48.625 $Y=4.477
C56698	vdd!#408	gnd!	4.75406e-19	$X=68.6955 $Y=5.7885
C56699	vdd!#411	gnd!	8.93384e-19	$X=62.4325 $Y=6.0655
C56700	vdd!#413	gnd!	9.46881e-19	$X=57.8825 $Y=5.3935
C56701	vdd!#417	gnd!	1.17108e-18	$X=59.061 $Y=5.42
C56702	vdd!#422	gnd!	1.72435e-18	$X=61.505 $Y=6.0655
C56703	vdd!#425	gnd!	1.05717e-19	$X=60.5515 $Y=6.0655
C56704	vdd!#430	gnd!	1.24637e-18	$X=54.7175 $Y=5.264
C56705	vdd!#431	gnd!	7.46335e-19	$X=54.433 $Y=5.072
C56706	vdd!#433	gnd!	2.56842e-19	$X=59.278 $Y=5.177
C56707	vdd!#436	gnd!	3.43062e-19	$X=59.588 $Y=6.0655
C56708	vdd!#440	gnd!	1.06258e-18	$X=59.234 $Y=5.7845
C56709	vdd!#443	gnd!	1.31349e-18	$X=42.6635 $Y=4.2245
C56710	vdd!#448	gnd!	1.94365e-18	$X=58.625 $Y=6.0655
C56711	vdd!#453	gnd!	3.58207e-18	$X=41.815 $Y=4.168
C56712	vdd!#455	gnd!	9.23297e-19	$X=56.6215 $Y=5.177
C56713	vdd!#458	gnd!	1.84587e-18	$X=57.659 $Y=6.0655
C56714	vdd!#461	gnd!	1.03209e-18	$X=56.7085 $Y=6.0655
C56715	vdd!#467	gnd!	7.39766e-19	$X=58.578 $Y=5.6145
C56716	vdd!#470	gnd!	1.95246e-18	$X=55.96 $Y=6.1315
C56717	vdd!#473	gnd!	1.48101e-18	$X=54.149 $Y=5.177
C56718	vdd!#476	gnd!	2.65064e-18	$X=59.646 $Y=6.638
C56719	vdd!#479	gnd!	3.87136e-18	$X=61.3105 $Y=6.497
C56720	vdd!#481	gnd!	3.03572e-18	$X=55.93 $Y=5.6145
C56721	vdd!#484	gnd!	1.4342e-18	$X=53.842 $Y=6.1315
C56722	vdd!#486	gnd!	2.0647e-18	$X=57.7915 $Y=6.312
C56723	vdd!#488	gnd!	1.05464e-18	$X=51.4535 $Y=5.177
C56724	vdd!#491	gnd!	2.65366e-18	$X=57.348 $Y=6.638
C56725	vdd!#495	gnd!	1.27946e-19	$X=53.079 $Y=5.6145
C56726	vdd!#498	gnd!	1.1604e-18	$X=51.724 $Y=6.1315
C56727	vdd!#501	gnd!	3.12294e-18	$X=55.05 $Y=6.638
C56728	vdd!#504	gnd!	1.17715e-18	$X=54.7415 $Y=6.3465
C56729	vdd!#506	gnd!	2.59173e-19	$X=48.907 $Y=5.177
C56730	vdd!#509	gnd!	8.83984e-19	$X=49.6055 $Y=6.1315
C56731	vdd!#512	gnd!	2.49008e-19	$X=50.235 $Y=5.6145
C56732	vdd!#515	gnd!	1.78068e-18	$X=52.752 $Y=6.638
C56733	vdd!#518	gnd!	1.28313e-18	$X=46.2695 $Y=5.177
C56734	vdd!#521	gnd!	1.439e-18	$X=47.4875 $Y=6.1315
C56735	vdd!#525	gnd!	1.57132e-18	$X=47.487 $Y=5.6145
C56736	vdd!#528	gnd!	2.14899e-18	$X=50.454 $Y=6.638
C56737	vdd!#531	gnd!	1.47304e-18	$X=45.369 $Y=6.1315
C56738	vdd!#534	gnd!	1.24912e-18	$X=43.736 $Y=5.177
C56739	vdd!#537	gnd!	2.74735e-18	$X=48.156 $Y=6.638
C56740	vdd!#541	gnd!	5.89008e-19	$X=44.8185 $Y=5.6145
C56741	vdd!#544	gnd!	7.3877e-19	$X=43.251 $Y=6.1315
C56742	vdd!#547	gnd!	1.7454e-18	$X=41.218 $Y=5.177
C56743	vdd!#550	gnd!	1.78953e-18	$X=45.858 $Y=6.638
C56744	vdd!#554	gnd!	5.76372e-19	$X=42.143 $Y=5.6145
C56745	vdd!#557	gnd!	1.86079e-18	$X=41.1325 $Y=6.1315
C56746	vdd!#560	gnd!	2.95733e-18	$X=43.56 $Y=6.638
C56747	vdd!#563	gnd!	1.25263e-18	$X=33.6025 $Y=4.9455
C56748	vdd!#564	gnd!	7.84401e-19	$X=29.578 $Y=4.28
C56749	vdd!#566	gnd!	1.7326e-18	$X=42.6605 $Y=5.7885
C56750	vdd!#569	gnd!	3.08282e-18	$X=43.316 $Y=6.714
C56751	vdd!#572	gnd!	1.18354e-18	$X=36.73 $Y=5.606
C56752	vdd!#573	gnd!	1.39664e-18	$X=27.5325 $Y=4.193
C56753	vdd!#575	gnd!	2.21738e-18	$X=38.2315 $Y=5.3185
C56754	vdd!#578	gnd!	6.32037e-19	$X=41.703 $Y=6.714
C56755	vdd!#580	gnd!	2.20145e-18	$X=27.1705 $Y=4.193
C56756	vdd!#581	gnd!	6.39012e-19	$X=28.507 $Y=4.474
C56757	vdd!#583	gnd!	1.03094e-18	$X=40.241 $Y=5.7885
C56758	vdd!#586	gnd!	2.85415e-18	$X=37.25 $Y=6.207
C56759	vdd!#588	gnd!	7.27321e-19	$X=23.8645 $Y=3.884
C56760	vdd!#591	gnd!	1.98554e-19	$X=38.6275 $Y=5.7885
C56761	vdd!#594	gnd!	1.82205e-18	$X=39.283 $Y=6.714
C56762	vdd!#598	gnd!	4.29509e-19	$X=29.3705 $Y=4.9455
C56763	vdd!#599	gnd!	1.34881e-18	$X=24.7115 $Y=4.1015
C56764	vdd!#601	gnd!	1.47471e-18	$X=37.1945 $Y=5.7885
C56765	vdd!#604	gnd!	1.10945e-18	$X=37.85 $Y=6.714
C56766	vdd!#607	gnd!	9.22777e-19	$X=33.823 $Y=5.937
C56767	vdd!#608	gnd!	1.93283e-18	$X=23.897 $Y=4.193
C56768	vdd!#610	gnd!	5.11227e-18	$X=33.1995 $Y=5.3185
C56769	vdd!#613	gnd!	2.73595e-18	$X=36.2365 $Y=6.714
C56770	vdd!#615	gnd!	2.17746e-18	$X=23.535 $Y=4.193
C56771	vdd!#616	gnd!	4.01945e-19	$X=24.6215 $Y=4.474
C56772	vdd!#618	gnd!	1.62961e-18	$X=34.7745 $Y=5.7885
C56773	vdd!#621	gnd!	4.2016e-18	$X=32.218 $Y=6.207
C56774	vdd!#623	gnd!	1.44787e-18	$X=20.5605 $Y=3.884
C56775	vdd!#626	gnd!	1.0832e-18	$X=33.1615 $Y=5.7885
C56776	vdd!#629	gnd!	2.24114e-18	$X=33.817 $Y=6.714
C56777	vdd!#633	gnd!	3.78992e-19	$X=25.139 $Y=4.9455
C56778	vdd!#634	gnd!	1.39582e-18	$X=21.996 $Y=4.275
C56779	vdd!#636	gnd!	2.99942e-18	$X=31.7285 $Y=5.7885
C56780	vdd!#639	gnd!	5.63702e-19	$X=32.3835 $Y=6.714
C56781	vdd!#642	gnd!	2.49934e-18	$X=27.1515 $Y=5.6145
C56782	vdd!#643	gnd!	3.10306e-18	$X=20.261 $Y=4.193
C56783	vdd!#645	gnd!	3.212e-18	$X=28.1675 $Y=5.3185
C56784	vdd!#648	gnd!	1.77234e-18	$X=30.7705 $Y=6.714
C56785	vdd!#650	gnd!	1.25095e-18	$X=19.899 $Y=4.193
C56786	vdd!#651	gnd!	4.57871e-19	$X=20.7355 $Y=4.474
C56787	vdd!#653	gnd!	7.21995e-19	$X=29.3085 $Y=5.7885
C56788	vdd!#656	gnd!	5.21799e-18	$X=27.186 $Y=6.207
C56789	vdd!#658	gnd!	1.36495e-18	$X=17.5505 $Y=3.95
C56790	vdd!#661	gnd!	5.99386e-19	$X=27.695 $Y=5.7885
C56791	vdd!#664	gnd!	2.69246e-18	$X=28.3505 $Y=6.714
C56792	vdd!#668	gnd!	1.15352e-18	$X=20.907 $Y=4.9455
C56793	vdd!#669	gnd!	1.37685e-18	$X=18.309 $Y=4.295
C56794	vdd!#671	gnd!	2.02292e-18	$X=26.262 $Y=5.7885
C56795	vdd!#674	gnd!	6.49705e-19	$X=26.9175 $Y=6.714
C56796	vdd!#677	gnd!	1.34848e-18	$X=22.2 $Y=5.581
C56797	vdd!#678	gnd!	2.50678e-18	$X=16.6255 $Y=4.193
C56798	vdd!#680	gnd!	2.99516e-18	$X=23.1355 $Y=5.3185
C56799	vdd!#683	gnd!	1.7887e-18	$X=25.304 $Y=6.714
C56800	vdd!#685	gnd!	3.58805e-18	$X=16.2635 $Y=4.193
C56801	vdd!#686	gnd!	9.35324e-19	$X=16.85 $Y=4.474
C56802	vdd!#688	gnd!	1.30616e-18	$X=23.842 $Y=5.7885
C56803	vdd!#691	gnd!	3.77431e-18	$X=22.154 $Y=6.207
C56804	vdd!#693	gnd!	2.56431e-19	$X=13.9515 $Y=3.884
C56805	vdd!#696	gnd!	6.01846e-19	$X=22.229 $Y=5.7885
C56806	vdd!#699	gnd!	1.2262e-18	$X=22.8845 $Y=6.714
C56807	vdd!#703	gnd!	9.63884e-19	$X=16.675 $Y=4.9455
C56808	vdd!#704	gnd!	2.08988e-18	$X=14.6915 $Y=4.346
C56809	vdd!#706	gnd!	1.63562e-18	$X=20.796 $Y=5.7885
C56810	vdd!#712	gnd!	9.14773e-19	$X=17.155 $Y=5.4985
C56811	vdd!#713	gnd!	3.19887e-18	$X=12.9895 $Y=4.193
C56812	vdd!#715	gnd!	2.24989e-18	$X=18.1035 $Y=5.3185
C56813	vdd!#718	gnd!	1.27773e-18	$X=19.838 $Y=6.714
C56814	vdd!#720	gnd!	2.90336e-18	$X=12.628 $Y=4.193
C56815	vdd!#721	gnd!	4.57871e-19	$X=12.964 $Y=4.474
C56816	vdd!#723	gnd!	7.58964e-19	$X=18.376 $Y=5.7885
C56817	vdd!#726	gnd!	3.98852e-18	$X=17.1225 $Y=6.207
C56818	vdd!#728	gnd!	1.46681e-18	$X=10.6475 $Y=3.884
C56819	vdd!#731	gnd!	4.85342e-19	$X=16.763 $Y=5.7885
C56820	vdd!#734	gnd!	1.68373e-18	$X=17.418 $Y=6.714
C56821	vdd!#738	gnd!	5.41326e-19	$X=12.443 $Y=4.9455
C56822	vdd!#739	gnd!	1.09644e-18	$X=10.3135 $Y=4.1295
C56823	vdd!#741	gnd!	9.47155e-19	$X=15.3295 $Y=5.7885
C56824	vdd!#747	gnd!	4.315e-19	$X=13.2995 $Y=5.881
C56825	vdd!#748	gnd!	1.46092e-18	$X=9.354 $Y=4.193
C56826	vdd!#750	gnd!	2.26218e-18	$X=13.0715 $Y=5.3185
C56827	vdd!#753	gnd!	2.3466e-18	$X=14.3715 $Y=6.714
C56828	vdd!#755	gnd!	3.02821e-18	$X=8.992 $Y=4.193
C56829	vdd!#756	gnd!	1.38915e-20	$X=9.0785 $Y=4.474
C56830	vdd!#758	gnd!	4.75085e-19	$X=12.9095 $Y=5.7885
C56831	vdd!#761	gnd!	2.38406e-18	$X=12.0905 $Y=6.207
C56832	vdd!#763	gnd!	2.99773e-19	$X=7.412 $Y=3.921
C56833	vdd!#769	gnd!	1.2526e-18	$X=11.952 $Y=6.714
C56834	vdd!#774	gnd!	1.92108e-18	$X=6.777 $Y=4.196
C56835	vdd!#776	gnd!	2.67767e-18	$X=9.8635 $Y=5.7885
C56836	vdd!#779	gnd!	7.78823e-19	$X=10.5185 $Y=6.714
C56837	vdd!#782	gnd!	6.37077e-19	$X=8.0745 $Y=5.7535
C56838	vdd!#783	gnd!	1.74749e-18	$X=5.7185 $Y=4.193
C56839	vdd!#785	gnd!	2.27219e-18	$X=8.0395 $Y=5.3185
C56840	vdd!#788	gnd!	2.01351e-18	$X=8.9055 $Y=6.714
C56841	vdd!#790	gnd!	2.15925e-18	$X=5.3565 $Y=4.193
C56842	vdd!#791	gnd!	3.51826e-18	$X=5.1925 $Y=4.474
C56843	vdd!#793	gnd!	2.49315e-18	$X=7.4435 $Y=5.7885
C56844	vdd!#796	gnd!	4.63631e-18	$X=7.0585 $Y=6.207
C56845	vdd!#798	gnd!	2.45493e-19	$X=4.039 $Y=3.884
C56846	vdd!#801	gnd!	2.13782e-18	$X=5.8305 $Y=5.7885
C56847	vdd!#804	gnd!	9.43288e-19	$X=6.4855 $Y=6.714
C56848	vdd!#808	gnd!	1.92775e-18	$X=3.979 $Y=4.9455
C56849	vdd!#809	gnd!	1.39099e-18	$X=3.055 $Y=4.167
C56850	vdd!#811	gnd!	2.52169e-18	$X=4.397 $Y=5.7885
C56851	vdd!#814	gnd!	1.55743e-18	$X=5.0525 $Y=6.714
C56852	vdd!#817	gnd!	1.28584e-18	$X=3.163 $Y=5.8075
C56853	vdd!#818	gnd!	1.59385e-18	$X=2.0825 $Y=4.193
C56854	vdd!#820	gnd!	2.39315e-18	$X=3.0075 $Y=5.3185
C56855	vdd!#823	gnd!	2.78168e-18	$X=3.4395 $Y=6.714
C56856	vdd!#825	gnd!	2.08152e-18	$X=1.7205 $Y=4.193
C56857	vdd!#826	gnd!	3.65833e-19	$X=1.307 $Y=4.474
C56858	vdd!#828	gnd!	1.11164e-18	$X=1.9775 $Y=5.7885
C56859	vdd!#831	gnd!	3.37857e-18	$X=2.0265 $Y=6.207
C56860	vdd!#833	gnd!	8.15495e-19	$X=1.009 $Y=4.551
C56861	vdd!#836	gnd!	3.37675e-19	$X=0.364 $Y=5.7885
C56862	vdd!#839	gnd!	1.28372e-18	$X=1.0195 $Y=6.714
C56863	avC92#13	gnd!	3.52402e-19	$X=75.0695 $Y=0.5625
C56864	avC92#18	gnd!	1.66017e-18	$X=76.251 $Y=1.4855
C56865	vdd!#843	gnd!	3.60898e-19	$X=64.244 $Y=1.761
C56866	vdd!#844	gnd!	2.28291e-18	$X=74.918 $Y=2.2065
C56867	vdd!#846	gnd!	1.80726e-18	$X=58.0145 $Y=1.7065
C56868	vdd!#849	gnd!	6.30404e-19	$X=54.016 $Y=1.532
C56869	vdd!#850	gnd!	6.69381e-19	$X=50.2615 $Y=1.568
C56870	vdd!#851	gnd!	3.18549e-19	$X=51.336 $Y=1.5605
C56871	vdd!#852	gnd!	3.24609e-18	$X=52.756 $Y=1.528
C56872	vdd!#857	gnd!	7.75729e-19	$X=72.6945 $Y=1.6165
C56873	vdd!#863	gnd!	7.96341e-19	$X=71.657 $Y=1.6165
C56874	vdd!#866	gnd!	1.38456e-18	$X=70.8845 $Y=1.6165
C56875	vdd!#872	gnd!	2.01078e-18	$X=64.578 $Y=2.375
C56876	vdd!#878	gnd!	2.94926e-19	$X=63.7295 $Y=2.375
C56877	vdd!#881	gnd!	1.0034e-18	$X=52.112 $Y=1.159
C56878	vdd!#884	gnd!	9.00311e-19	$X=71.3545 $Y=2.5865
C56879	vdd!#887	gnd!	1.56502e-18	$X=60.219 $Y=1.4115
C56880	vdd!#890	gnd!	1.15791e-18	$X=61.6775 $Y=2.375
C56881	vdd!#896	gnd!	8.38566e-19	$X=60.829 $Y=2.375
C56882	vdd!#899	gnd!	1.48311e-18	$X=58.3115 $Y=1.4535
C56883	vdd!#902	gnd!	6.43806e-19	$X=63.5255 $Y=1.6165
C56884	vdd!#905	gnd!	2.94111e-19	$X=68.039 $Y=2.5865
C56885	vdd!#908	gnd!	8.66658e-19	$X=62.488 $Y=1.6165
C56886	vdd!#911	gnd!	1.70425e-18	$X=58.777 $Y=2.375
C56887	vdd!#915	gnd!	2.32532e-18	$X=61.715 $Y=1.6165
C56888	vdd!#918	gnd!	2.19954e-18	$X=57.9285 $Y=2.375
C56889	vdd!#921	gnd!	2.58641e-18	$X=60.241 $Y=1.6165
C56890	vdd!#924	gnd!	1.64993e-19	$X=64.7235 $Y=2.5865
C56891	vdd!#927	gnd!	3.9121e-18	$X=45.122 $Y=1.159
C56892	vdd!#930	gnd!	2.81728e-18	$X=55.8765 $Y=2.375
C56893	vdd!#933	gnd!	2.17085e-18	$X=55.028 $Y=2.375
C56894	vdd!#936	gnd!	2.4549e-18	$X=51.9715 $Y=1.4115
C56895	vdd!#939	gnd!	2.39012e-18	$X=61.408 $Y=2.5865
C56896	vdd!#942	gnd!	4.7857e-20	$X=50.89 $Y=1.4115
C56897	vdd!#945	gnd!	1.97484e-18	$X=52.976 $Y=2.375
C56898	vdd!#949	gnd!	2.33761e-18	$X=50.0285 $Y=1.4535
C56899	vdd!#952	gnd!	7.62833e-19	$X=52.1275 $Y=2.375
C56900	vdd!#961	gnd!	1.35954e-18	$X=53.3185 $Y=1.6165
C56901	vdd!#964	gnd!	1.79351e-18	$X=50.0755 $Y=2.375
C56902	vdd!#968	gnd!	5.59147e-19	$X=52.546 $Y=1.6165
C56903	vdd!#971	gnd!	2.84303e-18	$X=49.227 $Y=2.375
C56904	vdd!#974	gnd!	2.81627e-18	$X=51.072 $Y=1.6165
C56905	vdd!#977	gnd!	8.30379e-20	$X=54.777 $Y=2.5865
C56906	vdd!#980	gnd!	1.86308e-18	$X=38.132 $Y=1.159
C56907	vdd!#983	gnd!	2.87155e-18	$X=47.175 $Y=2.375
C56908	vdd!#986	gnd!	1.47463e-18	$X=43.7235 $Y=1.4115
C56909	vdd!#989	gnd!	9.21022e-19	$X=46.3265 $Y=2.375
C56910	vdd!#992	gnd!	3.56888e-19	$X=42.642 $Y=1.4115
C56911	vdd!#995	gnd!	2.75584e-19	$X=51.461 $Y=2.5865
C56912	vdd!#998	gnd!	2.70201e-18	$X=44.2745 $Y=2.375
C56913	vdd!#1002	gnd!	1.03447e-18	$X=41.745 $Y=1.4535
C56914	vdd!#1005	gnd!	8.9808e-19	$X=43.426 $Y=2.375
C56915	vdd!#1008	gnd!	5.91571e-19	$X=45.187 $Y=1.6165
C56916	vdd!#1011	gnd!	4.69237e-19	$X=48.1455 $Y=2.5865
C56917	vdd!#1014	gnd!	7.96341e-19	$X=44.1495 $Y=1.6165
C56918	vdd!#1017	gnd!	2.73946e-18	$X=41.374 $Y=2.375
C56919	vdd!#1020	gnd!	5.59147e-19	$X=43.3765 $Y=1.6165
C56920	vdd!#1023	gnd!	2.7473e-19	$X=40.5255 $Y=2.375
C56921	vdd!#1027	gnd!	2.54483e-18	$X=25.6975 $Y=1.308
C56922	vdd!#1029	gnd!	1.71813e-18	$X=41.9025 $Y=1.6165
C56923	vdd!#1032	gnd!	5.35523e-19	$X=43.316 $Y=2.5655
C56924	vdd!#1034	gnd!	5.97183e-19	$X=29.23 $Y=1.575
C56925	vdd!#1035	gnd!	9.9599e-19	$X=28.2855 $Y=1.4315
C56926	vdd!#1037	gnd!	1.41245e-18	$X=31.142 $Y=1.159
C56927	vdd!#1040	gnd!	6.58021e-19	$X=41.703 $Y=2.5655
C56928	vdd!#1043	gnd!	5.59937e-19	$X=29.129 $Y=1.494
C56929	vdd!#1045	gnd!	7.22238e-19	$X=35.4755 $Y=1.4115
C56930	vdd!#1048	gnd!	3.05929e-18	$X=37.25 $Y=2.3885
C56931	vdd!#1050	gnd!	2.01016e-18	$X=27.018 $Y=1.547
C56932	vdd!#1051	gnd!	2.51605e-18	$X=26.629 $Y=1.4135
C56933	vdd!#1053	gnd!	1.46731e-19	$X=34.3945 $Y=1.4115
C56934	vdd!#1056	gnd!	1.12602e-18	$X=39.283 $Y=2.5655
C56935	vdd!#1062	gnd!	4.58747e-19	$X=32.3 $Y=1.7345
C56936	vdd!#1064	gnd!	8.76275e-19	$X=33.4615 $Y=1.4535
C56937	vdd!#1070	gnd!	1.26356e-18	$X=18.9775 $Y=1.1405
C56938	vdd!#1072	gnd!	1.75451e-19	$X=36.0175 $Y=1.6165
C56939	vdd!#1074	gnd!	8.19337e-19	$X=23.481 $Y=1.421
C56940	vdd!#1076	gnd!	7.96341e-19	$X=34.98 $Y=1.6165
C56941	vdd!#1079	gnd!	6.89409e-19	$X=36.2365 $Y=2.5655
C56942	vdd!#1081	gnd!	2.04042e-20	$X=28.1735 $Y=1.7945
C56943	vdd!#1082	gnd!	1.10527e-18	$X=24.449 $Y=1.4405
C56944	vdd!#1084	gnd!	1.38456e-18	$X=34.2075 $Y=1.6165
C56945	vdd!#1087	gnd!	2.40152e-18	$X=32.218 $Y=2.3885
C56946	vdd!#1089	gnd!	7.14331e-19	$X=22.554 $Y=1.502
C56947	vdd!#1091	gnd!	7.28216e-19	$X=29.666 $Y=1.803
C56948	vdd!#1096	gnd!	9.90129e-19	$X=33.817 $Y=2.5655
C56949	vdd!#1100	gnd!	4.51174e-19	$X=22.2855 $Y=1.4525
C56950	vdd!#1102	gnd!	1.41245e-18	$X=24.152 $Y=1.159
C56951	vdd!#1108	gnd!	4.40714e-19	$X=25.931 $Y=1.8745
C56952	vdd!#1109	gnd!	1.00517e-18	$X=20.147 $Y=1.4325
C56953	vdd!#1111	gnd!	9.53486e-19	$X=27.228 $Y=1.4115
C56954	vdd!#1114	gnd!	6.89238e-19	$X=30.7705 $Y=2.5655
C56955	vdd!#1116	gnd!	1.20023e-18	$X=20.572 $Y=1.4815
C56956	vdd!#1117	gnd!	7.95962e-19	$X=24.0965 $Y=1.665
C56957	vdd!#1122	gnd!	3.09596e-18	$X=27.186 $Y=2.3885
C56958	vdd!#1125	gnd!	9.44056e-19	$X=23.7235 $Y=1.8615
C56959	vdd!#1126	gnd!	3.48573e-19	$X=23.1345 $Y=1.6545
C56960	vdd!#1128	gnd!	2.47846e-18	$X=25.1785 $Y=1.4535
C56961	vdd!#1131	gnd!	9.43523e-19	$X=28.3505 $Y=2.5655
C56962	vdd!#1138	gnd!	1.4031e-19	$X=26.8485 $Y=1.6165
C56963	vdd!#1140	gnd!	1.27164e-18	$X=19.418 $Y=1.554
C56964	vdd!#1143	gnd!	7.96341e-19	$X=25.811 $Y=1.6165
C56965	vdd!#1146	gnd!	7.01569e-19	$X=26.9175 $Y=2.5655
C56966	vdd!#1148	gnd!	6.444e-19	$X=20.458 $Y=1.7035
C56967	vdd!#1149	gnd!	5.73368e-19	$X=16.49 $Y=1.421
C56968	vdd!#1151	gnd!	1.38456e-18	$X=25.038 $Y=1.6165
C56969	vdd!#1154	gnd!	6.01117e-19	$X=25.304 $Y=2.5655
C56970	vdd!#1156	gnd!	6.22323e-19	$X=15.4615 $Y=1.3665
C56971	vdd!#1157	gnd!	1.68583e-18	$X=16.7065 $Y=1.5185
C56972	vdd!#1162	gnd!	2.13032e-18	$X=22.154 $Y=2.3885
C56973	vdd!#1164	gnd!	6.92181e-19	$X=16.0805 $Y=1.575
C56974	vdd!#1165	gnd!	1.18482e-18	$X=17.4035 $Y=1.588
C56975	vdd!#1167	gnd!	2.16655e-18	$X=17.162 $Y=1.159
C56976	vdd!#1170	gnd!	9.23623e-19	$X=22.8845 $Y=2.5655
C56977	vdd!#1176	gnd!	3.57591e-19	$X=13.384 $Y=1.375
C56978	vdd!#1178	gnd!	5.99945e-19	$X=18.98 $Y=1.4115
C56979	vdd!#1183	gnd!	9.44014e-19	$X=13.4045 $Y=1.413
C56980	vdd!#1187	gnd!	1.83425e-18	$X=17.896 $Y=1.9995
C56981	vdd!#1189	gnd!	2.00751e-18	$X=13.8155 $Y=1.48
C56982	vdd!#1191	gnd!	1.76633e-18	$X=16.895 $Y=1.4535
C56983	vdd!#1194	gnd!	8.55991e-19	$X=19.838 $Y=2.5655
C56984	vdd!#1197	gnd!	1.84381e-18	$X=12.677 $Y=1.4405
C56985	vdd!#1199	gnd!	1.77135e-19	$X=17.679 $Y=1.6165
C56986	vdd!#1202	gnd!	2.4324e-18	$X=17.1225 $Y=2.3885
C56987	vdd!#1204	gnd!	4.17357e-19	$X=13.1065 $Y=1.679
C56988	vdd!#1207	gnd!	7.96341e-19	$X=16.6415 $Y=1.6165
C56989	vdd!#1210	gnd!	1.40056e-18	$X=17.418 $Y=2.5655
C56990	vdd!#1213	gnd!	2.31907e-20	$X=8.4835 $Y=1.175
C56991	vdd!#1215	gnd!	1.6099e-18	$X=15.869 $Y=1.6165
C56992	vdd!#1217	gnd!	2.36882e-18	$X=9.115 $Y=1.313
C56993	vdd!#1219	gnd!	1.13211e-18	$X=14.395 $Y=1.6165
C56994	vdd!#1224	gnd!	1.94483e-18	$X=9.9365 $Y=1.501
C56995	vdd!#1225	gnd!	2.09423e-18	$X=9.4505 $Y=1.478
C56996	vdd!#1227	gnd!	1.41245e-18	$X=10.172 $Y=1.159
C56997	vdd!#1230	gnd!	8.55991e-19	$X=14.3715 $Y=2.5655
C56998	vdd!#1235	gnd!	1.94744e-18	$X=6.706 $Y=1.265
C56999	vdd!#1237	gnd!	1.60999e-18	$X=10.732 $Y=1.4115
C57000	vdd!#1240	gnd!	2.31365e-18	$X=12.0905 $Y=2.3885
C57001	vdd!#1247	gnd!	1.06656e-18	$X=11.952 $Y=2.5655
C57002	vdd!#1249	gnd!	8.16972e-19	$X=9.65 $Y=2.03
C57003	vdd!#1252	gnd!	9.81311e-19	$X=8.388 $Y=1.7465
C57004	vdd!#1254	gnd!	1.51312e-18	$X=8.618 $Y=1.4535
C57005	vdd!#1260	gnd!	1.51118e-18	$X=7.1755 $Y=1.786
C57006	vdd!#1261	gnd!	8.73688e-19	$X=5.5725 $Y=1.421
C57007	vdd!#1263	gnd!	5.94375e-22	$X=8.517 $Y=1.6165
C57008	vdd!#1266	gnd!	1.35882e-19	$X=8.9055 $Y=2.5655
C57009	vdd!#1268	gnd!	1.40469e-19	$X=4.045 $Y=1.131
C57010	vdd!#1270	gnd!	7.96341e-19	$X=7.4795 $Y=1.6165
C57011	vdd!#1272	gnd!	9.37006e-19	$X=4.9605 $Y=1.469
C57012	vdd!#1274	gnd!	1.38456e-18	$X=6.7065 $Y=1.6165
C57013	vdd!#1277	gnd!	2.1446e-18	$X=7.0585 $Y=2.3885
C57014	vdd!#1279	gnd!	4.17357e-19	$X=4.8905 $Y=1.666
C57015	vdd!#1286	gnd!	9.49305e-19	$X=6.4855 $Y=2.5655
C57016	vdd!#1288	gnd!	6.71906e-19	$X=3.4415 $Y=1.501
C57017	vdd!#1289	gnd!	1.18471e-18	$X=2.6855 $Y=1.313
C57018	vdd!#1291	gnd!	1.82283e-18	$X=3.1875 $Y=1.159
C57019	vdd!#1297	gnd!	3.87454e-19	$X=1.9505 $Y=1.38
C57020	vdd!#1299	gnd!	1.09749e-18	$X=2.494 $Y=1.4115
C57021	vdd!#1302	gnd!	9.94299e-19	$X=3.4395 $Y=2.5655
C57022	vdd!#1304	gnd!	3.79016e-19	$X=1.555 $Y=1.551
C57023	vdd!#1305	gnd!	1.15139e-18	$X=1.204 $Y=1.482
C57024	vdd!#1307	gnd!	4.32992e-19	$X=1.4125 $Y=1.4115
C57025	vdd!#1310	gnd!	2.10221e-18	$X=2.0265 $Y=2.3885
C57026	vdd!#1315	gnd!	1.41051e-18	$X=0.338 $Y=1.4535
C57027	vdd!#1318	gnd!	1.07874e-18	$X=1.0195 $Y=2.5655
*
*
.ENDS lab4_alu
*
