*
*
*
*                       LINUX           Sat Feb  3 22:37:20 2024
*
*
*
*  PROGRAM  advgen
*
*  Name           : advgen - Quantus - (64-bit)
*  Version        : 20.1.2-p025
*  Build Date     : Thu Sep 3 13:54:09 PDT 2020
*
*  HSPICE LIBRARY
*
*!LENGTH_UNITS METERS
*
*
*

*
.SUBCKT lab1inv vdd! gnd! A Y
*
*
*  caps2d version: 10
*
*
*       TRANSISTOR CARDS
*
*
MavD1_1	Y#1	A#3	gnd!#4	gnd!#1	nmos1v#20ivpcell#20gpdk090	L=1e-07
+ W=1.2e-07
+ AD=6.96e-14	AS=6.96e-14	PD=1.16e-06	PS=1.16e-06
+ simW=1.2e-07 fw=1.2e-07
MavD7_1	Y#4	A#2	vdd!#4	vdd!#1	pmos1v#20ivpcell#20gpdk090	L=1e-07
+ W=2.4e-07
+ AD=6.72e-14	AS=6.72e-14	PD=1.04e-06	PS=1.04e-06
+ simW=2.4e-07 fw=2.4e-07
*
*
*       RESISTOR AND CAP/DIODE CARDS
*
Ri1	A#1	A	   10.0292	$mt1	$X=0.931 $Y=1.35
Ri3	Y#2	Y	    0.3661	$mt1	$X=1.2275 $Y=0.982
Ri4	Y	Y#5	    0.3224	$mt1	$X=1.205 $Y=1.6895
Ri6	Y#1	Y#2	   15.0000	$mt1	$X=1.265 $Y=0.625
Ri7	Y#4	Y#5	   15.0000	$mt1	$X=1.205 $Y=2.03
Ri8	vdd!#1	vdd!#2	   15.4544	$mt1	$X=1.243 $Y=2.88
Ri9	vdd!#2	vdd!#3	    0.2394	$mt1	$X=0.5425 $Y=2.88
Ri10	vdd!#3	vdd!	    0.1125	$mt1	$X=0.1855 $Y=2.88
Ri11	vdd!#2	vdd!#5	    0.3923	$mt1	$X=0.785 $Y=2.485
Ri13	vdd!#1	vdd!#3	   15.0000	$mt1	$X=0.3 $Y=2.88
Ri14	vdd!#4	vdd!#5	   15.0000	$mt1	$X=0.785 $Y=2.03
Ri15	gnd!#1	gnd!#2	   15.5144	$mt1	$X=1.243 $Y=0
Ri16	gnd!#2	gnd!#3	    0.2369	$mt1	$X=0.485 $Y=0
Ri17	gnd!#3	gnd!	8.125e-02	$mt1	$X=0.165 $Y=0
Ri18	gnd!#2	gnd!#5	    0.2798	$mt1	$X=0.725 $Y=0.2825
Ri20	gnd!#1	gnd!#3	   15.0000	$mt1	$X=0.245 $Y=0
Ri21	gnd!#4	gnd!#5	   15.0000	$mt1	$X=0.725 $Y=0.625
Rj1	A#2	A#1	   49.7927	$poly	$X=0.995 $Y=1.6805
Rj2	A#1	A#3	   60.2927	$poly	$X=0.995 $Y=0.9575
*
*       CAPACITOR CARDS
*
*
C1	Y	A#2	2.75518e-19	$X=1.067 $Y=1.773
C2	A	vdd!#1	1.71649e-17	$X=0.851 $Y=1.362
C3	A#1	Y	5.55518e-17	$X=1.0875 $Y=1.3355
C4	Y	gnd!#1	9.00519e-18	$X=1.2045 $Y=1.3345
C5	Y	vdd!#1	2.71426e-17	$X=1.198 $Y=1.3745
C6	A#2	vdd!#1	3.848e-17	$X=0.9945 $Y=2.0155
C7	A#3	gnd!#1	3.35011e-17	$X=0.9945 $Y=0.6755
C8	A#1	gnd!#1	1.08659e-17	$X=0.981 $Y=1.336
C9	A#1	vdd!#1	4.39639e-17	$X=0.981 $Y=1.373
C10	gnd!#2	A	8.54586e-19	$X=0.8245 $Y=1.101
C11	vdd!#2	A#2	6.6869e-18	$X=0.9345 $Y=2.207
C12	gnd!#2	A#3	7.68178e-18	$X=0.9205 $Y=0.5195
C13	gnd!#2	A#1	1.68148e-18	$X=0.8725 $Y=0.8175
C14	gnd!#5	Y#2	1.15559e-17	$X=0.9985 $Y=0.6315
C15	Y#2	A#3	1.29424e-17	$X=1.1165 $Y=0.7055
C16	A	vdd!#5	6.77372e-18	$X=0.83 $Y=1.6015
C17	vdd!#5	A#2	1.348e-17	$X=0.9065 $Y=2.083
C18	vdd!#5	A#1	1.91245e-18	$X=0.8715 $Y=1.811
C19	gnd!#2	Y#2	6.43537e-18	$X=1.096 $Y=0.5435
C20	vdd!#5	Y#5	1.5118e-17	$X=1.0095 $Y=2.0455
C21	gnd!#5	A	5.86713e-18	$X=0.806 $Y=1.06
C22	Y#5	vdd!#2	5.32963e-18	$X=1.0685 $Y=2.177
C23	Y#2	A#1	4.57165e-19	$X=1.1555 $Y=0.9705
C24	Y#5	vdd!#1	2.36785e-17	$X=1.2005 $Y=1.934
C25	Y#5	A#2	1.34864e-17	$X=1.0895 $Y=1.966
C26	Y#2	gnd!#1	2.98426e-17	$X=1.2645 $Y=0.7425
C27	gnd!#5	A#3	1.08801e-17	$X=0.874 $Y=0.605
C28	vdd!#5	gnd!	1.51588e-18	$X=0.4925 $Y=1.012
*
*
.ENDS lab1inv
*
