*
*
*
*                       LINUX           Tue Feb 13 21:46:35 2024
*
*
*
*  PROGRAM  advgen
*
*  Name           : advgen - Quantus - (64-bit)
*  Version        : 20.1.2-p025
*  Build Date     : Thu Sep 3 13:54:09 PDT 2020
*
*  HSPICE LIBRARY
*
*!LENGTH_UNITS METERS
*
*
*

*
.SUBCKT lab1inv_opt_inv_chain vdd! gnd! A Y
*
*
*  caps2d version: 10
*
*
*       TRANSISTOR CARDS
*
*
MI0/avD1_1	avC5#7	A#3	gnd!#14	gnd!#6
+ nmos1v#20ivpcell#20gpdk090	L=1e-07	W=1.2e-07
+ AD=6.96e-14	AS=6.96e-14	PD=1.16e-06	PS=1.16e-06	simW=1.2e-07 fw=1.2e-07
MI1/avD1_1	gnd!#1	avC5#10	Y	gnd!#6
+ nmos1v#20ivpcell#20gpdk090	L=1e-07	W=1.2e-07
+ AD=4.08e-14	AS=5.52e-14	PD=6.8e-07	PS=9.2e-07	M=4	simW=1.2e-07 fw=1.2e-07
MI0/avD7_1	avC5#3	A#2	vdd!#19	vdd!#7
+ pmos1v#20ivpcell#20gpdk090	L=1e-07	W=2.4e-07
+ AD=6.72e-14	AS=6.72e-14	PD=1.04e-06	PS=1.04e-06	simW=2.4e-07 fw=2.4e-07
MI1/avD7_1	Y	avC5#10	vdd!#2	vdd!#1
+ pmos1v#20ivpcell#20gpdk090	L=1e-07	W=2.4e-07
+ AD=3.84e-14	AS=5.28e-14	PD=5.6e-07	PS=8e-07	M=4	simW=2.4e-07 fw=2.4e-07
*
*
*       RESISTOR AND CAP/DIODE CARDS
*
Ri31	gnd!#7	gnd!#1	    0.3047	$mt1	$X=2.35 $Y=0
Ri32	gnd!#7	gnd!#8	7.750e-02	$mt1	$X=1.96 $Y=0
Ri33	gnd!#9	gnd!#8	    0.6575	$mt1	$X=1.228 $Y=0
Ri34	gnd!#10	gnd!#9	    0.1319	$mt1	$X=0.4355 $Y=0
Ri35	gnd!#10	gnd!	    0.1057	$mt1	$X=0.1925 $Y=0
Ri36	gnd!#1	gnd!#6	   15.3054	$mt1	$X=4.0225 $Y=0
Ri39	gnd!#15	gnd!#10	    0.2798	$mt1
+ $X=0.3 $Y=0.2825
Ri42	gnd!#7	gnd!#6	   15.0000	$mt1	$X=2.04 $Y=0
Ri43	gnd!#9	gnd!#6	   15.0000	$mt1	$X=0.57 $Y=0
Ri45	gnd!#15	gnd!#14	   15.0000	$mt1	$X=0.3 $Y=0.625
Ri1	A#1	A	   10.0217	$mt1	$X=0.455 $Y=1.35
Ri46	vdd!#2	vdd!#1	   15.1283	$mt1	$X=4.163 $Y=2.88
Ri49	vdd!#5	vdd!#2	    0.1183	$mt1	$X=2.2275 $Y=2.88
Ri50	vdd!#5	vdd!#6	    0.1100	$mt1	$X=1.9955 $Y=2.88
Ri51	vdd!#8	vdd!#6	    0.6625	$mt1	$X=1.223 $Y=2.88
Ri52	vdd!#9	vdd!#8	9.694e-02	$mt1	$X=0.4605 $Y=2.88
Ri53	vdd!#9	vdd!	    0.1394	$mt1	$X=0.215 $Y=2.88
Ri60	vdd!#20	vdd!#9	    0.3923	$mt1	$X=0.36 $Y=2.485
Ri62	vdd!#5	vdd!#1	   15.0000	$mt1	$X=2.105 $Y=2.88
Ri63	vdd!#8	vdd!#7	   15.0000	$mt1	$X=0.56 $Y=2.88
Ri67	vdd!#20	vdd!#19	   15.0000	$mt1	$X=0.36 $Y=2.03
Ri2	avC5#2	avC5	    0.5581	$mt1	$X=1.37 $Y=1.4675
Ri3	avC5#4	avC5#2	    0.3135	$mt1	$X=0.7825 $Y=1.85
Ri5	avC5	avC5#6	   10.0337	$mt1	$X=1.985 $Y=1.555
Ri6	avC5#8	avC5#2	    0.4782	$mt1	$X=0.84 $Y=1.075
Ri8	avC5#4	avC5#3	   15.0000	$mt1	$X=0.78 $Y=2.03
Ri9	avC5#8	avC5#7	   15.0000	$mt1	$X=0.84 $Y=0.625
Rj1	A#2	A#1	   49.7927	$poly	$X=0.57 $Y=1.6805
Rj2	A#1	A#3	   60.2927	$poly	$X=0.57 $Y=0.9575
Rj10	avC5#10	avC5#6	   22.9220	$poly	$X=2.25 $Y=1.55
*
*       CAPACITOR CARDS
*
*
C1	gnd!#6	A	2.47783e-18	$X=0.4545 $Y=1.3495
C2	A	vdd!#7	2.12805e-17	$X=0.461 $Y=1.391
C3	avC5	vdd!#6	3.35428e-18	$X=1.77 $Y=2.328
C4	avC5#2	gnd!#6	2.22211e-17	$X=0.8395 $Y=1.397
C5	A#2	vdd!#7	3.80114e-17	$X=0.5715 $Y=2.0205
C6	avC5#2	vdd!#7	3.14785e-17	$X=0.827 $Y=1.4755
C7	A	avC5#2	2.88931e-17	$X=0.581 $Y=1.365
C8	A#3	gnd!#6	3.50523e-17	$X=0.5695 $Y=0.6755
C9	A#1	gnd!#6	1.11829e-17	$X=0.5695 $Y=1.3235
C10	A#1	vdd!#7	3.88478e-17	$X=0.573 $Y=1.3745
C11	avC5#2	A#2	1.46147e-18	$X=0.647 $Y=1.83
C12	avC5#6	vdd!#1	2.48762e-17	$X=2.057 $Y=1.5235
C13	vdd!#7	gnd!#6	5.85103e-18	$X=0.6575 $Y=2.5635
C14	vdd!#6	gnd!#6	4.07322e-17	$X=1.6085 $Y=2.879
C15	avC5	gnd!#6	3.10614e-17	$X=1.997 $Y=1.5545
C16	avC5	vdd!#1	2.26241e-17	$X=2.0355 $Y=1.5945
C17	avC5#2	A#1	1.45982e-17	$X=0.6695 $Y=1.3505
C18	gnd!#15	vdd!#20	8.48895e-19	$X=0.326 $Y=1.262
C19	avC5#2	Y	2.91081e-18	$X=0.8945 $Y=1.392
C20	gnd!#1	avC5#10	6.01575e-17	$X=3.1815 $Y=0.618
C21	avC5#8	Y	7.05757e-18	$X=0.867 $Y=0.7915
C22	avC5#10	gnd!#6	1.26539e-16	$X=3.1255 $Y=1.436
C23	vdd!#20	A#1	1.91245e-18	$X=0.4615 $Y=1.7685
C24	vdd!#20	avC5#4	1.39378e-17	$X=0.611 $Y=2.04
C25	gnd!#15	avC5#8	1.15559e-17	$X=0.5575 $Y=0.6465
C26	vdd!#2	avC5#10	9.64008e-17	$X=3.169 $Y=2.031
C27	gnd!#15	A	7.94901e-18	$X=0.3735 $Y=0.915
C28	Y	avC5#10	2.03548e-16	$X=3.199 $Y=1.3105
C29	avC5#10	vdd!#1	2.33845e-16	$X=3.1785 $Y=2.236
C30	Y	avC5#6	4.88719e-18	$X=2.0545 $Y=1.5065
C31	Y	gnd!#6	9.47378e-17	$X=3.264 $Y=1.193
C32	Y	vdd!#1	6.09366e-17	$X=3.2375 $Y=2.1135
C33	avC5#8	gnd!#6	2.29809e-17	$X=0.8395 $Y=0.787
C34	A	vdd!#20	6.56717e-18	$X=0.41 $Y=1.7425
C35	vdd!#20	A#2	1.35456e-17	$X=0.4815 $Y=2.083
C36	avC5#4	A#2	1.16004e-17	$X=0.6785 $Y=1.97
C37	avC5#4	vdd!#7	3.10734e-17	$X=0.7785 $Y=1.9535
C38	Y	vdd!#2	1.08861e-16	$X=3.2145 $Y=1.9395
C39	gnd!#1	Y	8.52659e-17	$X=3.209 $Y=0.577
C40	avC5#8	A#3	1.21807e-17	$X=0.684 $Y=0.7225
C41	Y	avC5	2.12342e-17	$X=2.028 $Y=1.5455
C42	gnd!#15	A#3	1.08801e-17	$X=0.449 $Y=0.605
C43	avC5#8	A#1	3.14114e-18	$X=0.7165 $Y=1.0305
C44	A	gnd!	7.66936e-20	$X=0.196 $Y=0.3775
C45	A#1	gnd!	4.80076e-20	$X=0.211 $Y=0.323
C46	avC5#6	gnd!	5.68433e-19	$X=0.779 $Y=0.529
C47	vdd!#6	gnd!	5.68433e-19	$X=0.3975 $Y=0.5745
*
*
.ENDS lab1inv_opt_inv_chain
*
