*
*
*
*                       LINUX           Thu Mar  7 19:22:49 2024
*
*
*
*  PROGRAM  advgen
*
*  Name           : advgen - Quantus - (64-bit)
*  Version        : 20.1.2-p025
*  Build Date     : Thu Sep 3 13:54:09 PDT 2020
*
*  HSPICE LIBRARY
*
*!LENGTH_UNITS METERS
*
*
*

*
.SUBCKT lab2_nand vdd! gnd! Y
*
*
*  caps2d version: 10
*
*
*       TRANSISTOR CARDS
*
*
MavD1_1	avC4	avC6#4	Y#3	gnd!#1	nmos1v#20ivpcell#20gpdk090	L=1e-07
+ W=2.4e-07
+ AD=3.84e-14	AS=6.72e-14	PD=5.6e-07	PS=1.04e-06
+ simW=2.4e-07 fw=2.4e-07
MavD1_2	gnd!#3	avC5#3	avC4	gnd!#1	nmos1v#20ivpcell#20gpdk090	L=1e-07
+ W=2.4e-07
+ AD=6.72e-14	AS=3.84e-14	PD=1.04e-06	PS=5.6e-07
+ simW=2.4e-07 fw=2.4e-07
MavD7_1	Y#1	avC6	vdd!#6	vdd!#1	pmos1v#20ivpcell#20gpdk090	L=1e-07
+ W=2.4e-07
+ AD=3.84e-14	AS=6.72e-14	PD=5.6e-07	PS=1.04e-06
+ simW=2.4e-07 fw=2.4e-07
MavD7_2	vdd!#3	avC5	Y#1	vdd!#1	pmos1v#20ivpcell#20gpdk090	L=1e-07
+ W=2.4e-07
+ AD=6.72e-14	AS=3.84e-14	PD=1.04e-06	PS=5.6e-07
+ simW=2.4e-07 fw=2.4e-07
*
*
*       RESISTOR AND CAP/DIODE CARDS
*
Ri1	Y#2	Y	    0.3300	$mt1	$X=0.93 $Y=1.75
Ri2	Y	Y#4	    0.8766	$mt1	$X=0.72 $Y=1.075
Ri4	Y#1	Y#2	   15.0000	$mt1	$X=0.93 $Y=2.245
Ri5	Y#3	Y#4	   15.0000	$mt1	$X=0.51 $Y=0.655
Ri7	vdd!#2	vdd!	    0.3113	$mt1	$X=0.9225 $Y=2.88
Ri8	vdd!	vdd!#4	    0.4100	$mt1	$X=1.35 $Y=2.5825
Ri10	vdd!	vdd!#7	    0.4100	$mt1	$X=0.51 $Y=2.5825
Ri12	vdd!	vdd!#1	   15.3112	$mt1	$X=0.9225 $Y=2.88
Ri13	vdd!#1	vdd!#2	   15.0000	$mt1	$X=1.545 $Y=2.88
Ri14	vdd!#3	vdd!#4	   15.0000	$mt1	$X=1.35 $Y=2.245
Ri15	vdd!#6	vdd!#7	   15.0000	$mt1	$X=0.51 $Y=2.245
Ri16	gnd!#2	gnd!	    0.3413	$mt1	$X=0.9225 $Y=0
Ri17	gnd!	gnd!#1	   15.3413	$mt1	$X=0.9225 $Y=0
Ri18	gnd!	gnd!#4	    0.4233	$mt1	$X=1.35 $Y=0.3075
Ri20	gnd!#1	gnd!#2	   15.0000	$mt1	$X=1.605 $Y=0
Ri21	gnd!#3	gnd!#4	   15.0000	$mt1	$X=1.35 $Y=0.655
Rj1	avC6	avC6#3	   66.8667	$poly	$X=0.72 $Y=1.8455
Rj3	avC6#3	avC6#4	   65.8667	$poly	$X=0.72 $Y=1.05
Rj5	avC5#2	avC5#3	   63.8667	$poly	$X=1.14 $Y=1.04
Rj6	avC5#2	avC5	   68.8667	$poly	$X=1.14 $Y=1.835
*
*       CAPACITOR CARDS
*
*
C1	Y	vdd!	9.77924e-18	$X=0.9295 $Y=2.123
C2	vdd!	avC6	8.69637e-18	$X=0.7545 $Y=2.3095
C3	vdd!	avC5	8.69637e-18	$X=1.1035 $Y=2.3065
C4	vdd!	gnd!#1	2.30533e-17	$X=0.9295 $Y=2.879
C5	Y	avC6	1.07265e-17	$X=0.774 $Y=2.0635
C6	Y	avC5	1.1307e-17	$X=1.084 $Y=2.058
C7	Y	avC6#4	4.16527e-18	$X=0.7735 $Y=0.957
C8	Y	avC5#3	1.88966e-18	$X=1.0855 $Y=0.9505
C9	Y	gnd!#1	8.94434e-18	$X=0.9295 $Y=1.689
C10	Y	vdd!#1	2.58752e-17	$X=0.929 $Y=1.752
C11	avC6	avC5	1.44229e-17	$X=0.9275 $Y=2.192
C12	avC6#4	avC5#3	1.39982e-17	$X=0.931 $Y=0.699
C13	avC6	vdd!#1	3.01481e-17	$X=0.7235 $Y=2.207
C14	avC5	vdd!#1	3.02994e-17	$X=1.1345 $Y=2.202
C15	avC6#4	gnd!#1	3.04524e-17	$X=0.7195 $Y=0.702
C16	avC5#3	gnd!#1	3.06973e-17	$X=1.1395 $Y=0.697
C17	Y#4	gnd!#1	3.02302e-17	$X=0.5095 $Y=0.8345
C18	avC6#3	vdd!#1	6.61734e-17	$X=0.646 $Y=1.535
C19	gnd!#4	avC5#2	1.12623e-17	$X=1.3275 $Y=0.7225
C20	avC4	gnd!#1	1.51111e-17	$X=0.927 $Y=0.6505
C21	avC6#3	avC5#2	2.06061e-17	$X=0.958 $Y=1.434
C22	avC6#3	vdd!#7	9.39075e-18	$X=0.5295 $Y=2.191
C23	vdd!#4	avC6	2.41284e-18	$X=1.072 $Y=2.283
C24	avC5#2	gnd!#1	9.47495e-18	$X=1.243 $Y=1.43
C25	vdd!#7	avC6	9.95706e-18	$X=0.6015 $Y=2.283
C26	gnd!#4	avC6#4	2.17636e-18	$X=1.068 $Y=0.6125
C27	avC4	Y	2.15559e-17	$X=0.928 $Y=1.115
C28	Y	avC6#3	6.02707e-17	$X=0.7955 $Y=1.579
C29	Y	avC5#2	4.24479e-17	$X=1.079 $Y=1.5655
C30	Y#4	avC4	1.71026e-17	$X=0.6425 $Y=0.7755
C31	vdd!#4	avC5	9.95706e-18	$X=1.2575 $Y=2.2815
C32	avC5#2	vdd!#1	8.15382e-17	$X=1.223 $Y=1.5145
C33	Y	vdd!#4	1.44346e-17	$X=1.2585 $Y=2.2095
C34	Y#4	avC6#4	8.78844e-18	$X=0.6185 $Y=0.765
C35	vdd!#7	Y	1.44346e-17	$X=0.6 $Y=2.2095
C36	vdd!#7	avC5	2.41284e-18	$X=0.784 $Y=2.2815
C37	gnd!#4	avC5#3	9.68199e-18	$X=1.2545 $Y=0.6105
C38	avC6#3	gnd!#1	4.98407e-18	$X=0.625 $Y=1.438
C39	Y#4	avC6#3	1.98016e-17	$X=0.5355 $Y=0.9725
C40	avC4	avC6#4	1.08738e-17	$X=0.7815 $Y=0.686
C41	avC4	avC5#3	1.05804e-17	$X=1.076 $Y=0.683
C42	Y#4	avC5#3	1.34279e-18	$X=0.84 $Y=0.762
C43	vdd!#4	avC5#2	1.02286e-17	$X=1.328 $Y=2.1675
C44	avC4	gnd!#4	1.92164e-17	$X=1.24 $Y=0.5685
C45	avC6#3	avC5	2.35743e-19	$X=1.027 $Y=2.026
C46	Y	gnd!	3.07689e-18	$X=0.897 $Y=1.242
C47	avC4	gnd!	1.19831e-17	$X=0.9 $Y=0.511
C48	avC6#4	gnd!	7.26942e-18	$X=0.73 $Y=0.6265
C49	avC5#3	gnd!	8.43083e-18	$X=1.1015 $Y=0.623
C50	avC6#3	gnd!	1.27222e-18	$X=0.6855 $Y=0.988
C51	Y#4	gnd!	7.24497e-18	$X=0.547 $Y=0.737
C52	avC5#2	gnd!	3.13739e-18	$X=1.117 $Y=1.0285
*
*
.ENDS lab2_nand
*
