*
*
*
*                       LINUX           Tue Apr  2 21:43:30 2024
*
*
*
*  PROGRAM  advgen
*
*  Name           : advgen - Quantus - (64-bit)
*  Version        : 20.1.2-p025
*  Build Date     : Thu Sep 3 13:54:09 PDT 2020
*
*  HSPICE LIBRARY
*
*!LENGTH_UNITS METERS
*
*
*

*
.SUBCKT lab3_dff_onecell vdd! gnd! CLK D Q
*
*
*  caps2d version: 10
*
*
*       TRANSISTOR CARDS
*
*
MavD1_1	avC7	CLK#5	gnd!#16	gnd!#1	nmos1v#20ivpcell#20gpdk090
+ L=1e-07	W=1.2e-07
+ AD=6.96e-14	AS=6.96e-14	PD=1.16e-06	PS=1.16e-06
+ simW=1.2e-07 fw=1.2e-07
MavD1_2	gnd!#13	avC12#5	avC8#5	gnd!#1
+ nmos1v#20ivpcell#20gpdk090	L=1e-07	W=1.2e-07
+ AD=4.08e-14	AS=6.96e-14	PD=6.8e-07	PS=1.16e-06	simW=1.2e-07 fw=1.2e-07
MavD1_3	avC6#4	avC8#12	gnd!#13	gnd!#1
+ nmos1v#20ivpcell#20gpdk090	L=1e-07	W=1.2e-07
+ AD=4.08e-14	AS=4.08e-14	PD=6.8e-07	PS=6.8e-07	simW=1.2e-07 fw=1.2e-07
MavD1_4	avC12#10	CLK#6	avC6#4	gnd!#1	nmos1v#20ivpcell#20gpdk090
+ L=1e-07	W=1.2e-07
+ AD=4.08e-14	AS=4.08e-14	PD=6.8e-07	PS=6.8e-07
+ simW=1.2e-07 fw=1.2e-07
MavD1_5	avC9#4	avC7#14	avC12#10	gnd!#1
+ nmos1v#20ivpcell#20gpdk090	L=1e-07	W=1.2e-07
+ AD=4.08e-14	AS=4.08e-14	PD=6.8e-07	PS=6.8e-07	simW=1.2e-07 fw=1.2e-07
MavD1_6	gnd!#9	D#3	avC9#4	gnd!#1	nmos1v#20ivpcell#20gpdk090	L=1e-07
+ W=1.2e-07
+ AD=4.08e-14	AS=4.08e-14	PD=6.8e-07	PS=6.8e-07
+ simW=1.2e-07 fw=1.2e-07
MavD1_7	avC10	avC8#8	gnd!#9	gnd!#1	nmos1v#20ivpcell#20gpdk090	L=1e-07
+ W=1.2e-07
+ AD=4.08e-14	AS=4.08e-14	PD=6.8e-07	PS=6.8e-07
+ simW=1.2e-07 fw=1.2e-07
MavD1_8	avC13	CLK#13	avC10	gnd!#1	nmos1v#20ivpcell#20gpdk090	L=1e-07
+ W=1.2e-07
+ AD=4.08e-14	AS=4.08e-14	PD=6.8e-07	PS=6.8e-07
+ simW=1.2e-07 fw=1.2e-07
MavD1_9	avC11	avC7#13	avC13	gnd!#1	nmos1v#20ivpcell#20gpdk090
+ L=1e-07	W=1.2e-07
+ AD=4.08e-14	AS=4.08e-14	PD=6.8e-07	PS=6.8e-07
+ simW=1.2e-07 fw=1.2e-07
MavD1_10	gnd!#6	Q#3	avC11	gnd!#1	nmos1v#20ivpcell#20gpdk090
+ L=1e-07	W=1.2e-07
+ AD=4.08e-14	AS=4.08e-14	PD=6.8e-07	PS=6.8e-07
+ simW=1.2e-07 fw=1.2e-07
MavD1_11	Q#7	avC13#10	gnd!#6	gnd!#1
+ nmos1v#20ivpcell#20gpdk090	L=1e-07	W=1.2e-07
+ AD=6.96e-14	AS=4.08e-14	PD=1.16e-06	PS=6.8e-07	simW=1.2e-07 fw=1.2e-07
MavD7_1	avC7#4	CLK#3	vdd!#17	vdd!#1	pmos1v#20ivpcell#20gpdk090
+ L=1e-07	W=2.4e-07
+ AD=6.72e-14	AS=6.72e-14	PD=1.04e-06	PS=1.04e-06
+ simW=2.4e-07 fw=2.4e-07
MavD7_2	vdd!#14	avC12#3	avC8	vdd!#1
+ pmos1v#20ivpcell#20gpdk090	L=1e-07	W=2.4e-07
+ AD=3.84e-14	AS=6.72e-14	PD=5.6e-07	PS=1.04e-06	simW=2.4e-07 fw=2.4e-07
MavD7_3	avC6	avC8#10	vdd!#14	vdd!#1
+ pmos1v#20ivpcell#20gpdk090	L=1e-07	W=2.4e-07
+ AD=3.84e-14	AS=3.84e-14	PD=5.6e-07	PS=5.6e-07	simW=2.4e-07 fw=2.4e-07
MavD7_4	avC12#6	avC7#15	avC6	vdd!#1
+ pmos1v#20ivpcell#20gpdk090	L=1e-07	W=2.4e-07
+ AD=3.84e-14	AS=3.84e-14	PD=5.6e-07	PS=5.6e-07	simW=2.4e-07 fw=2.4e-07
MavD7_5	avC9	CLK#9	avC12#6	vdd!#1	pmos1v#20ivpcell#20gpdk090
+ L=1e-07	W=2.4e-07
+ AD=3.84e-14	AS=3.84e-14	PD=5.6e-07	PS=5.6e-07
+ simW=2.4e-07 fw=2.4e-07
MavD7_6	vdd!#11	D#2	avC9	vdd!#1	pmos1v#20ivpcell#20gpdk090
+ L=1e-07	W=2.4e-07
+ AD=3.84e-14	AS=3.84e-14	PD=5.6e-07	PS=5.6e-07
+ simW=2.4e-07 fw=2.4e-07
MavD7_7	avC10#4	avC8#9	vdd!#11	vdd!#1
+ pmos1v#20ivpcell#20gpdk090	L=1e-07	W=2.4e-07
+ AD=3.84e-14	AS=3.84e-14	PD=5.6e-07	PS=5.6e-07	simW=2.4e-07 fw=2.4e-07
MavD7_8	avC13#5	avC7#12	avC10#4	vdd!#1
+ pmos1v#20ivpcell#20gpdk090	L=1e-07	W=2.4e-07
+ AD=3.84e-14	AS=3.84e-14	PD=5.6e-07	PS=5.6e-07	simW=2.4e-07 fw=2.4e-07
MavD7_9	avC11#4	CLK#19	avC13#5	vdd!#1
+ pmos1v#20ivpcell#20gpdk090	L=1e-07	W=2.4e-07
+ AD=3.84e-14	AS=3.84e-14	PD=5.6e-07	PS=5.6e-07	simW=2.4e-07 fw=2.4e-07
MavD7_10	vdd!#8	Q#2	avC11#4	vdd!#1
+ pmos1v#20ivpcell#20gpdk090	L=1e-07	W=2.4e-07
+ AD=3.84e-14	AS=3.84e-14	PD=5.6e-07	PS=5.6e-07	simW=2.4e-07 fw=2.4e-07
MavD7_11	Q#4	avC13#11	vdd!#8	vdd!#1
+ pmos1v#20ivpcell#20gpdk090	L=1e-07	W=2.4e-07
+ AD=6.72e-14	AS=3.84e-14	PD=1.04e-06	PS=5.6e-07	simW=2.4e-07 fw=2.4e-07
*
*
*       RESISTOR AND CAP/DIODE CARDS
*
Rh1	avC12#9	avC12	    3.1842	$mt2	$X=2.638 $Y=1.67
Rh2	avC7#10	avC7#8	    0.5910	$mt2	$X=4.1 $Y=2.5175
Rh3	avC7#8	avC7#7	    0.8555	$mt2	$X=2.0725 $Y=2.5175
Rh4	CLK#16	CLK#15	    1.9838	$mt2	$X=5.355 $Y=1.7575
Rh5	CLK#15	CLK#17	    0.5910	$mt2	$X=4.5755 $Y=1.1
Rh6	CLK#17	CLK#18	    0.3268	$mt2	$X=3.3525 $Y=1.1
Rh7	CLK#18	CLK#8	    1.6996	$mt2	$X=2.965 $Y=0.6925
Rh8	CLK#17	CLK#11	    1.4379	$mt2	$X=3.8 $Y=1.225
Rh9	CLK#18	CLK#1	    2.5228	$mt2	$X=1.59 $Y=1.1
Rh10	avC13#4	avC13#8	    1.8341	$mt2
+ $X=6.177 $Y=0.82
Ri1	CLK	CLK#1	6.588e-02	$mt1	$X=0.1975 $Y=1.134
Ri2	CLK#1	CLK#2	   10.0016	$mt1	$X=0.19 $Y=1.245
Ri4	avC7#2	avC7#5	    0.9885	$mt1	$X=0.81 $Y=1.337
Ri6	avC7#5	avC7#7	    1.6564	$mt1	$X=0.81 $Y=2.3245
Ri7	avC7	avC7#2	   15.0000	$mt1	$X=0.87 $Y=0.585
Ri8	avC7#4	avC7#5	   15.0000	$mt1	$X=0.81 $Y=2.09
Ri9	avC12	avC12#2	2.807e-03	$mt1	$X=1.82 $Y=1.64
Ri11	avC8#2	avC8#4	    0.4683	$mt1	$X=2.21 $Y=1.6955
Ri12	avC8#4	avC8#6	    0.8352	$mt1	$X=1.92 $Y=1.36
Ri14	avC8	avC8#2	   15.0000	$mt1	$X=2.21 $Y=2.09
Ri15	avC8#5	avC8#6	   15.0000	$mt1	$X=1.63 $Y=0.59
Ri17	avC6#2	avC6#5	    1.1561	$mt1	$X=2.71 $Y=1.3905
Ri19	avC6	avC6#2	   15.0000	$mt1	$X=3.05 $Y=2.09
Ri20	avC6#4	avC6#5	   15.0000	$mt1	$X=2.71 $Y=0.59
Ri21	avC7#8	avC7#9	   11.4031	$mt1	$X=3.26 $Y=2.47
Ri22	CLK#8	CLK#7	5.161e-03	$mt1	$X=2.975 $Y=0.2825
Ri24	avC12#7	avC12#9	    0.2661	$mt1
+ $X=3.47 $Y=1.858
Ri25	avC12#9	avC12#11	    0.7822	$mt1
+ $X=3.47 $Y=1.4525
Ri27	avC12#6	avC12#7	   15.0000	$mt1	$X=3.47 $Y=2.09
Ri28	avC12#10	avC12#11	   15.0000	$mt1	$X=3.25 $Y=0.59
Ri29	CLK#11	CLK#12	6.486e-03	$mt1	$X=3.7975 $Y=1.35
Ri30	CLK#10	CLK#12	   10.0000	$mt1	$X=3.81 $Y=1.365
Ri31	D#1	D	   10.1616	$mt1	$X=3.9175 $Y=2.575
Ri33	avC9#2	avC9#5	    1.4588	$mt1	$X=4.29 $Y=1.2905
Ri35	avC9	avC9#2	   15.0000	$mt1	$X=3.89 $Y=2.09
Ri36	avC9#4	avC9#5	   15.0000	$mt1	$X=3.79 $Y=0.59
Ri38	avC10#2	avC10#5	    1.1388	$mt1
+ $X=4.59 $Y=1.2695
Ri40	avC10	avC10#2	   15.0000	$mt1	$X=4.87 $Y=0.59
Ri41	avC10#4	avC10#5	   15.0000	$mt1	$X=4.73 $Y=2.09
Ri42	avC7#10	avC7#11	   11.4031	$mt1	$X=4.94 $Y=2.47
Ri43	CLK#14	CLK#15	    1.4800	$mt1	$X=5.22 $Y=1.1025
Ri44	CLK#16	CLK#20	2.319e-03	$mt1	$X=5.36 $Y=2.47
Ri46	avC13#2	avC13#4	    0.2286	$mt1
+ $X=5.487 $Y=0.82
Ri47	avC13#4	avC13#6	    1.1120	$mt1	$X=5.685 $Y=1.1
Ri49	avC13	avC13#2	   15.0000	$mt1	$X=5.41 $Y=0.59
Ri50	avC13#5	avC13#6	   15.0000	$mt1	$X=5.15 $Y=2.09
Ri52	avC11#2	avC11#5	    1.1827	$mt1
+ $X=5.95 $Y=1.4095
Ri54	avC11	avC11#2	   15.0000	$mt1	$X=5.95 $Y=0.59
Ri55	avC11#4	avC11#5	   15.0000	$mt1	$X=5.57 $Y=2.09
Ri56	avC13#8	avC13#9	   11.5721	$mt1
+ $X=6.7325 $Y=1.1195
Ri57	Q	Q#5	    0.8027	$mt1	$X=6.7805 $Y=1.775
Ri59	Q#5	Q#1	    0.3333	$mt1	$X=6.41 $Y=2.3845
Ri60	Q	Q#8	    0.5400	$mt1	$X=7.03 $Y=1.0255
Ri62	Q#4	Q#5	   15.0000	$mt1	$X=6.41 $Y=2.09
Ri63	Q#7	Q#8	   15.0000	$mt1	$X=7.03 $Y=0.59
Ri64	gnd!#1	gnd!#2	   15.2780	$mt1	$X=6.7605 $Y=0
Ri65	gnd!#2	gnd!#3	    0.2355	$mt1	$X=6.2625 $Y=0
Ri66	gnd!#3	gnd!#4	    0.8405	$mt1	$X=5.163 $Y=0
Ri67	gnd!#4	gnd!#5	    1.1230	$mt1	$X=3.25 $Y=0
Ri68	gnd!#2	gnd!#7	    0.3550	$mt1	$X=6.49 $Y=0.275
Ri70	gnd!#4	gnd!#10	    0.3550	$mt1	$X=4.33 $Y=0.275
Ri72	gnd!#5	gnd!#12	    0.9200	$mt1	$X=1.1955 $Y=0
Ri73	gnd!#12	gnd!	7.500e-02	$mt1	$X=0.16 $Y=0
Ri74	gnd!#5	gnd!#14	    0.3800	$mt1	$X=2.17 $Y=0.275
Ri76	gnd!#12	gnd!#17	    0.3645	$mt1
+ $X=0.33 $Y=0.2725
Ri78	gnd!#1	gnd!#3	   15.0000	$mt1	$X=6.015 $Y=0
Ri79	gnd!#1	gnd!#5	   15.0000	$mt1	$X=2.08 $Y=0
Ri80	gnd!#6	gnd!#7	   15.0000	$mt1	$X=6.49 $Y=0.59
Ri81	gnd!#9	gnd!#10	   15.0000	$mt1	$X=4.33 $Y=0.59
Ri82	gnd!#1	gnd!#12	   15.0000	$mt1	$X=0.24 $Y=0
Ri83	gnd!#13	gnd!#14	   15.0000	$mt1	$X=2.17 $Y=0.59
Ri84	gnd!#16	gnd!#17	   15.0000	$mt1
+ $X=0.33 $Y=0.585
Ri85	vdd!#1	vdd!#2	   15.4980	$mt1	$X=6.4805 $Y=2.88
Ri86	vdd!#2	vdd!#3	    0.3005	$mt1	$X=5.6975 $Y=2.88
Ri87	vdd!#3	vdd!#4	    0.4605	$mt1	$X=4.913 $Y=2.88
Ri88	vdd!#4	vdd!#5	    0.9110	$mt1	$X=3.545 $Y=2.88
Ri89	vdd!#5	vdd!#6	    0.2787	$mt1	$X=2.3775 $Y=2.88
Ri90	vdd!#6	vdd!#7	    0.8807	$mt1	$X=1.1975 $Y=2.88
Ri91	vdd!#2	vdd!#9	    0.4883	$mt1	$X=5.99 $Y=2.505
Ri93	vdd!#4	vdd!#12	    0.4609	$mt1	$X=4.46 $Y=2.535
Ri95	vdd!#5	vdd!#15	    0.4883	$mt1	$X=2.63 $Y=2.505
Ri97	vdd!#7	vdd!#18	    0.5133	$mt1	$X=0.39 $Y=2.505
Ri99	vdd!#7	vdd!	    0.1075	$mt1	$X=0.1905 $Y=2.88
Ri100	vdd!#1	vdd!#3	   15.0000	$mt1	$X=5.385 $Y=2.88
Ri101	vdd!#1	vdd!#6	   15.0000	$mt1	$X=2.065 $Y=2.875
Ri102	vdd!#1	vdd!#7	   15.0000	$mt1	$X=0.3 $Y=2.88
Ri103	vdd!#8	vdd!#9	   15.0000	$mt1	$X=5.99 $Y=2.09
Ri104	vdd!#11	vdd!#12	   15.0000	$mt1	$X=4.31 $Y=2.09
Ri105	vdd!#14	vdd!#15	   15.0000	$mt1	$X=2.63 $Y=2.09
Ri106	vdd!#17	vdd!#18	   15.0000	$mt1	$X=0.39 $Y=2.09
Rj1	CLK#3	CLK#4	   72.1172	$poly	$X=0.6 $Y=1.633
Rj2	CLK#4	CLK#2	   30.5117	$poly	$X=0.4175 $Y=1.245
Rj3	CLK#4	CLK#5	   59.6172	$poly	$X=0.6 $Y=0.92
Rj4	avC12#3	avC12#4	   73.6899	$poly
+ $X=2.2705 $Y=1.7
Rj5	avC12#4	avC12#5	   93.1026	$poly	$X=1.9 $Y=1.1
Rj6	avC12#2	avC12#4	   10.0000	$poly	$X=1.83 $Y=1.65
Rj7	CLK#6	CLK#7	   29.6773	$poly	$X=2.98 $Y=0.4305
Rj8	CLK#9	CLK#10	   49.9152	$poly	$X=3.68 $Y=1.768
Rj9	D#1	D#2	   22.0435	$poly	$X=4.1 $Y=2.2975
Rj10	D#2	D#3	  130.3302	$poly	$X=4.1 $Y=1.3105
Rj11	avC8#8	avC8#9	  133.6033	$poly	$X=4.6 $Y=1.2595
Rj12	avC8#9	avC8#10	  280.1746	$poly	$X=3.6805 $Y=2.815
Rj13	avC8#10	avC8#11	   97.1453	$poly
+ $X=2.84 $Y=1.5355
Rj14	avC8#11	avC8#4	   17.0248	$poly	$X=2.3905 $Y=1.3275
Rj15	avC8#11	avC8#12	   62.2871	$poly
+ $X=2.44 $Y=0.9525
Rj16	CLK#13	CLK#14	   49.6026	$poly	$X=5.14 $Y=0.832
Rj17	CLK#19	CLK#20	   27.5435	$poly	$X=5.36 $Y=2.2845
Rj18	avC7#11	avC7#12	   17.5435	$poly
+ $X=4.94 $Y=2.275
Rj19	avC7#12	avC7#13	  197.1746	$poly
+ $X=5.4445 $Y=1.445
Rj20	avC7#13	avC7#14	  284.1746	$poly
+ $X=4.6005 $Y=0.145
Rj21	avC7#14	avC7#15	  149.1746	$poly
+ $X=3.26 $Y=1.2795
Rj22	avC7#15	avC7#9	   17.5435	$poly	$X=3.26 $Y=2.2845
Rj23	Q#1	Q#2	  103.3639	$poly	$X=6.0575 $Y=2.64
Rj24	Q#2	Q#3	  158.3492	$poly	$X=5.965 $Y=1.2755
Rj25	avC13#10	avC13#9	   55.5442	$poly
+ $X=6.76 $Y=0.9195
Rj26	avC13#9	avC13#11	  100.6899	$poly	$X=6.43 $Y=1.36
*
*       CAPACITOR CARDS
*
*
C1	avC7#8	vdd!#5	5.88726e-17	$X=3.1655 $Y=2.746
C2	avC8#12	gnd!#1	2.56389e-17	$X=2.4395 $Y=0.6505
C3	CLK#11	D#3	3.19839e-18	$X=3.9735 $Y=1.0445
C4	D#1	vdd!#4	3.50189e-17	$X=4.0595 $Y=2.6155
C5	gnd!#2	Q#3	2.01042e-18	$X=6.3045 $Y=0.5725
C6	avC12#9	vdd!#1	9.55039e-18	$X=3.294 $Y=1.637
C7	avC12#2	avC8#11	5.08805e-18	$X=2.314 $Y=1.3825
C8	CLK#15	avC13#4	2.4194e-17	$X=5.548 $Y=1.1
C9	CLK#15	gnd!#4	3.02822e-18	$X=4.9055 $Y=0.759
C10	D	avC8#10	2.14893e-18	$X=3.585 $Y=2.4995
C11	D	CLK#9	4.74396e-18	$X=3.7285 $Y=2.347
C12	CLK#18	avC8#11	4.08459e-18	$X=2.544 $Y=1.2895
C13	CLK#6	gnd!#1	1.42711e-17	$X=2.9795 $Y=0.63
C14	avC7#9	D#1	2.52593e-18	$X=3.525 $Y=2.4515
C15	D	avC8#9	2.69585e-18	$X=3.9 $Y=2.485
C16	CLK#17	gnd!#4	6.97018e-18	$X=3.9975 $Y=0.7395
C17	CLK#11	vdd!#1	3.15153e-18	$X=3.8335 $Y=1.342
C18	CLK#18	gnd!#1	2.06601e-17	$X=2.24 $Y=1.0995
C19	CLK#15	avC13#8	3.85098e-18	$X=6.062 $Y=1.04
C20	avC13#4	CLK#16	1.5979e-18	$X=5.5655 $Y=1.662
C21	Q	avC13#11	1.8309e-18	$X=6.551 $Y=1.729
C22	avC7#14	gnd!#1	9.06685e-17	$X=3.5195 $Y=0.5545
C23	avC12	avC8#11	8.83249e-19	$X=2.5045 $Y=1.418
C24	avC7#10	vdd!#1	2.76672e-17	$X=4.671 $Y=2.512
C25	avC12#9	vdd!#5	1.84186e-18	$X=3.1805 $Y=2.3945
C26	CLK#15	gnd!#1	1.00698e-17	$X=5.334 $Y=1.252
C27	D	avC7#9	2.28048e-18	$X=3.517 $Y=2.5035
C28	D	CLK#10	5.72503e-19	$X=3.78 $Y=2.1515
C29	gnd!#2	avC13#10	3.12002e-18	$X=6.663 $Y=0.442
C30	avC7#14	vdd!#1	8.42225e-18	$X=3.5225 $Y=0.59
C31	vdd!#4	avC7#11	1.96399e-18	$X=4.77 $Y=2.5105
C32	CLK	gnd!#1	1.74869e-17	$X=0.197 $Y=1.0435
C33	CLK#18	avC12#2	1.1483e-18	$X=1.996 $Y=1.332
C34	D#3	gnd!#1	2.07563e-17	$X=4.079 $Y=0.8295
C35	avC12#5	avC8#11	3.34484e-18	$X=2.22 $Y=0.995
C36	avC7#8	D	1.8172e-17	$X=3.715 $Y=2.565
C37	CLK#15	vdd!#1	3.05161e-18	$X=5.3085 $Y=1.276
C38	CLK#11	D	2.08442e-18	$X=3.7885 $Y=2.2195
C39	CLK#1	avC8#4	1.40599e-18	$X=1.5495 $Y=1.299
C40	D#3	vdd!#1	4.86109e-18	$X=4.077 $Y=0.842
C41	CLK#18	vdd!#1	4.4308e-18	$X=2.2695 $Y=1.1335
C42	avC13#9	Q	3.57387e-17	$X=6.848 $Y=1.382
C43	avC12#3	avC8#10	1.64966e-17	$X=2.5385 $Y=2.0705
C44	D	vdd!#1	4.85973e-18	$X=3.77 $Y=2.575
C45	CLK#15	avC7#13	4.79222e-18	$X=5.501 $Y=1.0305
C46	avC8#8	gnd!#1	2.22583e-17	$X=4.599 $Y=0.804
C47	avC7#7	avC8#4	1.54629e-18	$X=1.685 $Y=1.826
C48	vdd!#2	Q#2	6.84111e-18	$X=5.8855 $Y=2.4585
C49	avC8#10	avC7#15	1.4808e-17	$X=3.124 $Y=1.916
C50	CLK#16	vdd!#1	4.49545e-17	$X=5.3555 $Y=2.358
C51	CLK#8	avC8#11	1.28259e-18	$X=2.736 $Y=1.0565
C52	avC13#4	gnd!#1	2.42232e-17	$X=5.7565 $Y=0.952
C53	CLK#9	avC8#10	1.91613e-18	$X=3.489 $Y=2.106
C54	avC8#8	vdd!#1	4.70713e-18	$X=4.594 $Y=0.8155
C55	avC13#8	Q	1.00384e-17	$X=6.8435 $Y=1.209
C56	avC12	avC8#4	6.00433e-17	$X=2.054 $Y=1.467
C57	Q	gnd!#1	7.16675e-18	$X=7.029 $Y=1.4295
C58	Q	vdd!#1	5.11256e-17	$X=7.0035 $Y=1.4405
C59	CLK#7	avC8#11	1.23129e-18	$X=2.823 $Y=0.7815
C60	avC7#15	CLK#9	8.86974e-18	$X=3.5185 $Y=1.9645
C61	CLK#18	avC12#5	2.64061e-18	$X=1.965 $Y=0.7965
C62	avC13#4	avC7#13	2.7786e-17	$X=5.7195 $Y=0.8765
C63	CLK#13	gnd!#1	1.37379e-17	$X=5.139 $Y=0.59
C64	CLK#18	avC8#4	1.41362e-17	$X=2.149 $Y=1.259
C65	avC7#11	CLK#20	9.69628e-18	$X=5.149 $Y=2.432
C66	avC13#4	vdd!#1	6.73948e-18	$X=5.7255 $Y=0.98
C67	avC13#8	gnd!#1	1.68165e-17	$X=6.5755 $Y=0.8905
C68	CLK#9	D#2	9.51514e-18	$X=3.8405 $Y=1.9745
C69	CLK#18	avC12	4.29752e-17	$X=2.121 $Y=1.363
C70	CLK#9	avC8#9	1.89697e-18	$X=3.846 $Y=2.0755
C71	avC8#11	avC12#3	2.19721e-18	$X=2.5205 $Y=1.7105
C72	avC13#4	Q#3	3.2215e-18	$X=5.981 $Y=1.064
C73	gnd!#2	avC13#8	6.74085e-18	$X=6.5215 $Y=0.392
C74	avC7#13	gnd!#1	1.03677e-16	$X=5.679 $Y=0.7945
C75	D#2	avC8#9	2.18238e-17	$X=4.217 $Y=1.882
C76	avC13#8	Q#3	6.28811e-18	$X=6.288 $Y=1.0265
C77	avC7#10	vdd!#4	3.85675e-17	$X=4.3315 $Y=2.6925
C78	avC7#13	vdd!#1	2.59847e-17	$X=5.646 $Y=0.828
C79	avC8#9	avC7#12	1.89484e-17	$X=4.788 $Y=1.9185
C80	vdd!#2	avC13#11	2.88362e-18	$X=6.125 $Y=2.2265
C81	Q#3	gnd!#1	3.76557e-17	$X=6.0915 $Y=1.1195
C82	avC7#12	CLK#19	1.65611e-17	$X=5.2465 $Y=1.9835
C83	Q#3	vdd!#1	1.15855e-17	$X=6.0735 $Y=1.132
C84	avC7#12	Q#2	1.51344e-18	$X=5.318 $Y=1.9925
C85	avC13#10	gnd!#1	2.89503e-17	$X=6.759 $Y=0.634
C86	CLK#19	Q#2	9.49195e-18	$X=5.4565 $Y=2.0695
C87	avC12#9	avC8#11	3.25098e-18	$X=2.7775 $Y=1.405
C88	vdd!#2	Q#1	4.65462e-17	$X=6.1245 $Y=2.6535
C89	Q#2	avC13#11	3.3105e-17	$X=6.0525 $Y=2.0295
C90	avC13#9	Q#1	1.67981e-18	$X=6.3915 $Y=2.0235
C91	CLK#17	avC7#8	2.37006e-18	$X=3.631 $Y=1.5495
C92	avC8#4	avC12#3	6.5011e-18	$X=2.3205 $Y=1.818
C93	avC12#9	CLK#10	9.23961e-18	$X=3.6925 $Y=1.454
C94	avC7#8	D#1	7.46979e-18	$X=3.9225 $Y=2.493
C95	CLK#2	vdd!#1	3.16158e-17	$X=0.1985 $Y=1.2555
C96	avC8#11	avC7#14	2.24801e-18	$X=2.889 $Y=1.1235
C97	D#3	avC8#9	2.28181e-18	$X=4.203 $Y=1.1845
C98	CLK#16	vdd!#2	7.03389e-18	$X=5.7405 $Y=2.5765
C99	D	vdd!#4	2.57674e-17	$X=3.805 $Y=2.627
C100	avC8#11	avC7#15	8.36874e-18	$X=2.9455 $Y=1.5625
C101	avC8#10	avC7#9	2.14813e-17	$X=3.1745 $Y=2.385
C102	CLK#5	avC12#5	1.3973e-18	$X=1.1635 $Y=0.672
C103	avC12#2	vdd!#1	4.79923e-17	$X=1.914 $Y=1.436
C104	CLK#17	avC7#14	3.02682e-18	$X=3.6755 $Y=0.8715
C105	avC7#7	CLK#3	2.89539e-18	$X=0.7105 $Y=2.1145
C106	avC7#15	CLK#10	1.10733e-17	$X=3.54 $Y=1.5895
C107	CLK#17	avC12#9	1.68943e-17	$X=3.617 $Y=1.2955
C108	avC12	CLK#3	1.56092e-18	$X=0.8245 $Y=1.958
C109	avC12#5	avC8#12	9.87132e-18	$X=2.1985 $Y=0.683
C110	vdd!#5	avC12#3	2.88196e-18	$X=2.6105 $Y=2.255
C111	avC7#10	D#1	5.36501e-18	$X=4.2855 $Y=2.499
C112	avC8#4	vdd!#1	2.9238e-17	$X=2.114 $Y=1.3745
C113	avC7#9	CLK#9	5.04381e-18	$X=3.4535 $Y=2.268
C114	CLK#7	gnd!#1	4.74807e-17	$X=2.9795 $Y=0.2995
C115	CLK#1	avC7#7	1.30247e-17	$X=0.872 $Y=1.9205
C116	CLK#18	avC12#9	2.62217e-17	$X=2.7265 $Y=1.337
C117	avC8#12	CLK#6	5.56024e-18	$X=2.764 $Y=0.638
C118	CLK#9	D#1	5.74182e-18	$X=3.826 $Y=2.224
C119	avC7#13	Q#2	1.20437e-17	$X=5.7405 $Y=1.646
C120	CLK#10	D#2	2.42879e-17	$X=3.942 $Y=1.603
C121	avC7#8	avC12#3	1.8221e-18	$X=2.556 $Y=2.095
C122	CLK#16	D#1	7.30391e-19	$X=4.5255 $Y=2.447
C123	CLK#4	gnd!#1	9.35846e-18	$X=0.5995 $Y=1.276
C124	CLK#1	avC12	3.40164e-18	$X=1.2335 $Y=1.4285
C125	CLK#6	avC7#14	5.73306e-18	$X=3.054 $Y=0.6195
C126	CLK#14	avC7#10	3.24968e-18	$X=4.9505 $Y=1.5245
C127	CLK#17	D#1	9.7717e-19	$X=3.988 $Y=1.987
C128	CLK#8	avC6#4	8.714e-19	$X=2.776 $Y=0.528
C129	avC7#8	avC8#10	1.55647e-17	$X=2.9775 $Y=2.294
C130	avC7#9	vdd!#1	1.79791e-17	$X=3.261 $Y=2.433
C131	D#1	avC8#9	3.22863e-17	$X=4.23 $Y=2.3575
C132	vdd!#4	avC8#10	4.76316e-18	$X=3.3565 $Y=2.51
C133	CLK#18	D#3	1.81466e-18	$X=3.635 $Y=0.8945
C134	avC12#9	avC8#10	2.62926e-18	$X=3.004 $Y=1.981
C135	avC12	avC7#7	1.6979e-17	$X=1.4665 $Y=2.1575
C136	CLK#16	avC7#11	2.79452e-18	$X=5.022 $Y=2.417
C137	CLK#3	vdd!#1	4.83739e-17	$X=0.6145 $Y=2.0145
C138	avC8#9	avC7#11	1.06182e-17	$X=4.863 $Y=2.367
C139	vdd!#5	avC8#10	3.57057e-17	$X=2.975 $Y=2.5315
C140	avC7#14	D#3	2.29802e-17	$X=3.918 $Y=0.75
C141	avC7#10	CLK#20	2.15882e-18	$X=5.2405 $Y=2.445
C142	CLK#8	avC12#10	1.29895e-18	$X=3.1775 $Y=0.528
C143	avC7#14	avC8#8	6.71025e-18	$X=4.309 $Y=0.7365
C144	CLK#10	vdd!#1	3.14977e-17	$X=3.7965 $Y=1.4225
C145	avC12#9	avC7#15	1.20582e-17	$X=3.2645 $Y=1.744
C146	CLK#16	avC11#4	1.52326e-18	$X=5.522 $Y=2.1545
C147	avC12#3	vdd!#1	3.10524e-17	$X=2.4265 $Y=2.0235
C148	CLK#4	vdd!#1	2.76392e-17	$X=0.6165 $Y=1.284
C149	CLK#14	avC7#12	2.01616e-17	$X=5.0115 $Y=1.4245
C150	D#3	avC8#8	1.38173e-17	$X=4.3515 $Y=0.816
C151	avC7#8	CLK#9	2.77093e-18	$X=3.6265 $Y=2.1295
C152	gnd!#4	CLK#8	3.10461e-17	$X=3.5375 $Y=0.2445
C153	avC13#4	CLK#14	3.41218e-18	$X=5.299 $Y=1.026
C154	avC12#9	CLK#9	1.8228e-18	$X=3.621 $Y=2.009
C155	D#1	vdd!#1	1.87474e-17	$X=4.0965 $Y=2.497
C156	CLK#17	avC7#10	5.93437e-18	$X=4.1905 $Y=1.734
C157	gnd!#4	avC7#14	4.32507e-17	$X=3.867 $Y=0.3575
C158	avC8#10	vdd!#1	8.2803e-17	$X=2.8515 $Y=2.208
C159	avC8#8	CLK#13	5.97493e-18	$X=4.9525 $Y=0.664
C160	avC12	avC7#8	1.32361e-17	$X=2.581 $Y=2.0645
C161	CLK#16	Q#1	1.3134e-18	$X=5.9185 $Y=2.4975
C162	avC7#11	vdd!#1	2.54756e-17	$X=4.935 $Y=2.4335
C163	avC7#13	avC8#8	6.81358e-18	$X=4.878 $Y=0.8015
C164	CLK#11	D#2	2.92098e-18	$X=3.9855 $Y=1.6025
C165	CLK#15	avC13#9	2.06144e-18	$X=6.058 $Y=1.2865
C166	CLK#20	Q#2	1.05781e-17	$X=5.4625 $Y=2.3695
C167	avC7#15	vdd!#1	2.43093e-17	$X=3.2625 $Y=1.788
C168	CLK#14	gnd!#1	1.7587e-17	$X=5.074 $Y=1.0625
C169	avC8#12	CLK#7	2.91811e-18	$X=2.666 $Y=0.503
C170	avC7#13	CLK#13	1.83101e-17	$X=5.223 $Y=0.6215
C171	CLK#15	D#2	6.91735e-19	$X=4.4565 $Y=1.6475
C172	Q#2	avC13#9	1.48435e-17	$X=6.1645 $Y=1.762
C173	CLK#16	D#2	8.2869e-19	$X=4.4845 $Y=1.9715
C174	CLK#14	vdd!#1	9.43342e-18	$X=5.064 $Y=1.0755
C175	CLK#9	vdd!#1	1.31786e-17	$X=3.6795 $Y=2.081
C176	avC7#10	avC8#9	6.21864e-18	$X=4.5975 $Y=2.285
C177	CLK#8	avC12#9	2.04357e-18	$X=3.094 $Y=0.85
C178	avC13#11	Q#1	8.48135e-18	$X=6.216 $Y=2.1955
C179	gnd!#4	D#3	3.08094e-18	$X=4.1375 $Y=0.6585
C180	avC7#13	Q#3	2.20134e-17	$X=5.9635 $Y=1.018
C181	CLK#7	avC7#14	1.22981e-17	$X=3.115 $Y=0.3635
C182	CLK#20	vdd!#1	1.95532e-17	$X=5.3535 $Y=2.433
C183	avC12#9	avC7#8	2.88356e-17	$X=3.273 $Y=2.0075
C184	D#2	vdd!#1	2.41672e-17	$X=4.097 $Y=1.8145
C185	CLK#15	avC7#12	3.43349e-18	$X=5.079 $Y=1.631
C186	avC7#14	CLK#10	2.02793e-18	$X=3.7215 $Y=1.1815
C187	Q#3	avC13#10	7.91924e-18	$X=6.542 $Y=0.7915
C188	avC12	CLK#4	2.18587e-18	$X=0.8455 $Y=1.3495
C189	Q#1	vdd!#1	6.76925e-17	$X=6.2195 $Y=2.587
C190	CLK#11	avC7#8	7.39512e-18	$X=3.7 $Y=1.6
C191	avC13#4	avC7#12	1.40011e-18	$X=5.2335 $Y=1.5195
C192	avC13#9	gnd!#1	1.06665e-17	$X=6.58 $Y=1.312
C193	avC8#9	vdd!#1	9.39538e-17	$X=4.4965 $Y=2.0755
C194	CLK#10	D#3	6.57466e-18	$X=3.932 $Y=1.1345
C195	CLK#4	avC12#2	9.50011e-19	$X=1.123 $Y=1.336
C196	avC12#9	CLK#11	2.44889e-17	$X=3.6865 $Y=1.4045
C197	gnd!#4	avC8#8	2.48861e-18	$X=4.541 $Y=0.6505
C198	avC7#10	Q#2	1.01226e-18	$X=5.346 $Y=2.3095
C199	avC13#9	vdd!#1	4.56066e-17	$X=6.5475 $Y=1.3285
C200	CLK#1	gnd!#1	3.55902e-17	$X=0.568 $Y=1.1955
C201	avC7#12	vdd!#1	3.40624e-17	$X=4.9285 $Y=1.8475
C202	CLK#16	Q#2	6.713e-18	$X=5.614 $Y=2.2505
C203	CLK#8	avC12#5	1.47162e-18	$X=2.157 $Y=0.6345
C204	CLK#1	vdd!#1	5.20753e-17	$X=0.638 $Y=1.2305
C205	avC13#4	Q#2	3.06515e-18	$X=5.77 $Y=1.68
C206	CLK#19	vdd!#1	1.1533e-17	$X=5.354 $Y=2.0385
C207	vdd!#5	avC7#9	2.71288e-18	$X=3.2315 $Y=2.5185
C208	avC8#4	CLK#4	1.35035e-18	$X=1.0545 $Y=1.3005
C209	avC8#8	CLK#14	1.0549e-17	$X=4.8065 $Y=0.9165
C210	CLK#16	avC13#11	1.27486e-18	$X=5.974 $Y=2.06
C211	CLK#8	avC8#12	7.37082e-18	$X=2.547 $Y=0.5895
C212	avC7#7	vdd!#1	1.06485e-16	$X=1.1555 $Y=2.492
C213	Q#2	vdd!#1	5.57747e-17	$X=5.7575 $Y=2.1855
C214	avC8#4	avC12#2	3.81854e-17	$X=1.976 $Y=1.398
C215	avC12	vdd!#1	3.26078e-17	$X=2.018 $Y=1.715
C216	avC7#13	CLK#14	1.00817e-17	$X=5.2615 $Y=0.9795
C217	avC8#11	gnd!#1	7.30377e-18	$X=2.6395 $Y=1.3495
C218	CLK#8	gnd!#1	1.06579e-16	$X=2.9695 $Y=0.351
C219	vdd!#4	avC8#9	3.60072e-17	$X=4.2435 $Y=2.468
C220	avC13#11	vdd!#1	2.87258e-17	$X=6.185 $Y=1.954
C221	CLK#15	avC7#10	7.99656e-18	$X=5.0135 $Y=1.874
C222	CLK#8	avC7#14	8.09532e-18	$X=3.238 $Y=0.45
C223	gnd!#2	avC7#13	2.93545e-18	$X=6.2605 $Y=0.293
C224	CLK#5	gnd!#1	3.94491e-17	$X=0.5995 $Y=0.632
C225	gnd!#4	CLK#14	2.10619e-18	$X=4.8785 $Y=0.8085
C226	avC7#10	CLK#16	4.58218e-17	$X=5.046 $Y=2.427
C227	avC12#9	avC7#14	1.05984e-17	$X=3.423 $Y=0.9845
C228	gnd!#4	avC7#13	1.60651e-17	$X=5.0815 $Y=0.4855
C229	avC7#8	vdd!#4	7.77502e-18	$X=3.71 $Y=2.735
C230	avC12#5	gnd!#1	3.57927e-17	$X=1.8995 $Y=0.7245
C231	avC7#8	vdd!#1	2.21335e-17	$X=3.273 $Y=2.495
C232	avC8#11	vdd!#1	2.93497e-17	$X=2.646 $Y=1.3585
C233	Q#3	avC13#9	1.63738e-17	$X=6.2875 $Y=1.1965
C234	avC7#2	CLK#4	1.11874e-17	$X=0.7025 $Y=1.114
C235	avC7#8	avC9#2	3.41862e-18	$X=3.867 $Y=1.8735
C236	avC9#5	CLK#11	3.35985e-17	$X=3.9275 $Y=1.195
C237	avC11#5	Q#1	3.58727e-19	$X=6.0025 $Y=2.111
C238	avC10#2	CLK#13	5.5982e-18	$X=5.028 $Y=0.645
C239	avC13#8	Q#5	4.40346e-18	$X=6.4765 $Y=1.58
C240	vdd!#18	CLK#2	2.23859e-18	$X=0.2845 $Y=1.7315
C241	avC9#2	vdd!#12	1.69919e-17	$X=4.282 $Y=2.015
C242	avC11#2	Q#8	6.47525e-19	$X=6.628 $Y=0.818
C243	avC11#5	Q#5	5.40781e-18	$X=6.1145 $Y=1.8585
C244	avC10#2	avC13#4	3.98408e-18	$X=5.0905 $Y=0.8495
C245	CLK#17	avC9#2	1.97899e-18	$X=3.96 $Y=1.415
C246	vdd!#12	avC10#5	2.14961e-17	$X=4.4925 $Y=1.875
C247	avC12	vdd!#15	4.17572e-18	$X=2.536 $Y=2.1585
C248	avC6#5	avC7#14	4.1813e-18	$X=2.959 $Y=0.8135
C249	avC9#2	D	6.54242e-18	$X=3.85 $Y=2.3435
C250	avC10#5	avC13#6	3.57982e-17	$X=4.9085 $Y=1.5615
C251	avC9#5	avC10#5	1.2691e-18	$X=4.3805 $Y=1.213
C252	CLK#16	avC9#2	1.41702e-18	$X=4.613 $Y=1.9345
C253	avC11#2	gnd!#1	1.17226e-17	$X=5.949 $Y=0.939
C254	avC7#8	vdd!#15	1.26958e-17	$X=2.711 $Y=2.269
C255	avC11#2	avC7#13	8.61898e-18	$X=5.868 $Y=0.895
C256	vdd!#9	Q#2	1.26327e-17	$X=5.93 $Y=2.2205
C257	avC10#2	CLK#14	2.10472e-17	$X=4.9105 $Y=0.935
C258	CLK#16	Q#5	2.73881e-18	$X=6.063 $Y=2.1505
C259	CLK#15	avC13#6	2.12435e-17	$X=5.212 $Y=1.5855
C260	gnd!#10	avC8#8	7.15416e-18	$X=4.4275 $Y=0.6055
C261	avC10#5	CLK#9	3.35063e-19	$X=3.997 $Y=1.845
C262	avC9#5	CLK#6	1.1515e-18	$X=3.1925 $Y=0.711
C263	avC9#2	avC7#12	1.33859e-18	$X=4.549 $Y=1.752
C264	avC6#5	avC8#11	1.04556e-17	$X=2.672 $Y=1.1515
C265	avC13#6	CLK#19	7.19905e-18	$X=5.3 $Y=1.9575
C266	CLK#11	avC6#5	6.89919e-19	$X=3.2215 $Y=1.1115
C267	avC12#7	vdd!#1	8.58799e-19	$X=3.47 $Y=2.0355
C268	vdd!#12	D#2	5.76388e-18	$X=4.254 $Y=2.026
C269	avC8#2	vdd!#1	1.9415e-17	$X=2.2155 $Y=1.9555
C270	avC7#8	avC6#2	8.40751e-18	$X=2.972 $Y=1.9475
C271	avC6#2	avC12#2	6.91226e-19	$X=2.363 $Y=1.59
C272	vdd!#9	Q#5	1.90056e-17	$X=6.1375 $Y=2.1705
C273	CLK#18	gnd!#14	3.09108e-18	$X=2.1795 $Y=0.5785
C274	vdd!#15	avC12#3	9.31921e-18	$X=2.538 $Y=2.1425
C275	avC13#8	gnd!#7	9.0153e-18	$X=6.5095 $Y=0.584
C276	avC11#5	avC13#11	5.98659e-18	$X=6.0305 $Y=1.8265
C277	gnd!#10	avC7#14	1.77185e-18	$X=4.188 $Y=0.5025
C278	avC6#2	avC7#15	9.81204e-18	$X=3.1 $Y=1.7785
C279	avC7#2	gnd!#1	2.28047e-17	$X=0.8395 $Y=0.9
C280	avC13#4	avC11#2	6.75411e-17	$X=5.8875 $Y=0.943
C281	CLK#1	vdd!#18	2.30621e-18	$X=0.417 $Y=2.074
C282	avC11#5	avC7#13	9.87403e-18	$X=5.731 $Y=1.336
C283	avC10#2	avC13#2	1.16016e-17	$X=5.2215 $Y=0.702
C284	avC8#6	CLK#5	2.09274e-18	$X=0.996 $Y=0.7165
C285	CLK#15	avC10#2	1.13496e-17	$X=4.9385 $Y=0.9525
C286	gnd!#7	Q#5	1.32923e-18	$X=6.4645 $Y=0.9705
C287	avC13#8	Q#8	2.90089e-17	$X=6.903 $Y=0.7865
C288	avC8#2	avC12#3	7.48988e-18	$X=2.298 $Y=1.9805
C289	avC6#5	avC7#15	3.00703e-19	$X=2.9975 $Y=1.3755
C290	CLK#11	avC13#6	9.82445e-19	$X=4.509 $Y=1.5485
C291	CLK#1	avC8#6	3.8999e-18	$X=1.407 $Y=0.9235
C292	avC7#10	avC9#2	2.58286e-18	$X=4.3215 $Y=1.9825
C293	Q#5	avC13#11	1.49309e-17	$X=6.289 $Y=1.992
C294	avC7#2	avC12#5	2.33973e-18	$X=1.4735 $Y=0.7945
C295	CLK#8	avC12#11	2.81953e-17	$X=3.178 $Y=0.6895
C296	avC12#11	avC7#14	1.83507e-17	$X=3.3155 $Y=0.7435
C297	avC6#5	avC8#12	7.32837e-18	$X=2.5345 $Y=0.749
C298	CLK#16	vdd!#9	1.09945e-17	$X=5.857 $Y=2.2615
C299	avC11#2	gnd!#7	1.05823e-17	$X=6.3185 $Y=0.6335
C300	avC11#5	CLK#19	6.78707e-18	$X=5.4625 $Y=1.931
C301	avC6#5	avC12#2	7.8725e-19	$X=2.329 $Y=1.1615
C302	avC12#7	avC7#15	4.99437e-18	$X=3.407 $Y=1.9585
C303	avC9#2	D#2	1.72337e-17	$X=4.0955 $Y=1.747
C304	CLK#15	avC11#2	3.41805e-18	$X=5.7555 $Y=1.0375
C305	CLK#18	avC6#2	2.74419e-18	$X=2.683 $Y=1.567
C306	avC11#2	avC13#9	8.94986e-18	$X=6.195 $Y=1.084
C307	Q#8	avC13#10	8.44666e-18	$X=6.8835 $Y=0.686
C308	avC13#6	vdd!#1	1.06296e-17	$X=5.1375 $Y=1.765
C309	avC10#2	vdd!#1	8.61904e-19	$X=4.721 $Y=0.811
C310	avC10#2	avC7#12	6.3107e-19	$X=4.8325 $Y=1.307
C311	avC12#11	CLK#7	1.02026e-18	$X=3.1165 $Y=0.556
C312	avC8#2	vdd!#15	1.44346e-17	$X=2.415 $Y=2.0915
C313	avC8#6	vdd!#1	1.63169e-18	$X=1.642 $Y=0.8635
C314	CLK#17	avC10#2	3.0241e-18	$X=4.36 $Y=0.925
C315	CLK#11	avC10#2	3.58313e-19	$X=4.2865 $Y=1.059
C316	gnd!#14	avC6#5	9.25952e-18	$X=2.3425 $Y=0.632
C317	avC7#5	CLK#4	6.77572e-18	$X=0.6865 $Y=1.506
C318	avC6#2	avC12#3	5.59716e-18	$X=2.5925 $Y=1.927
C319	avC13#4	avC11#5	2.51441e-17	$X=5.7585 $Y=1.377
C320	avC9#5	avC8#8	4.11954e-18	$X=4.395 $Y=0.888
C321	CLK#15	avC10#5	6.94006e-18	$X=4.893 $Y=1.322
C322	gnd!#17	avC7#2	1.05823e-17	$X=0.491 $Y=0.6185
C323	gnd!#14	avC8#12	5.89336e-18	$X=2.2945 $Y=0.5655
C324	avC10#5	avC7#12	1.38074e-17	$X=4.7965 $Y=1.595
C325	avC12#9	avC9#2	1.83576e-17	$X=3.843 $Y=1.637
C326	gnd!#7	Q#3	7.15416e-18	$X=6.3675 $Y=0.684
C327	avC9#2	CLK#10	8.78011e-18	$X=3.904 $Y=1.5005
C328	avC13#2	CLK#13	5.37715e-18	$X=5.2725 $Y=0.6275
C329	CLK#18	avC8#6	1.05778e-17	$X=1.7675 $Y=0.9075
C330	avC7#10	vdd!#12	1.64438e-17	$X=4.4605 $Y=2.2845
C331	avC10#2	avC7#13	5.4092e-18	$X=5.044 $Y=0.7945
C332	avC7#2	avC12#2	8.81302e-19	$X=1.34 $Y=1.1475
C333	avC12#11	avC8#12	1.08524e-18	$X=2.7855 $Y=0.7165
C334	CLK#16	vdd!#12	2.74843e-18	$X=4.649 $Y=2.247
C335	avC11#5	avC13#9	1.48003e-18	$X=6.1245 $Y=1.488
C336	avC9#2	avC7#15	1.51554e-18	$X=3.5815 $Y=1.73
C337	vdd!#15	avC8#11	2.41963e-18	$X=2.633 $Y=1.8855
C338	CLK#15	avC11#5	7.80494e-18	$X=5.6035 $Y=1.491
C339	CLK#17	avC9#5	1.85994e-17	$X=3.932 $Y=1.074
C340	avC7#8	avC12#7	5.00204e-18	$X=3.4505 $Y=2.0735
C341	avC8#6	avC6#5	4.86159e-18	$X=2.1195 $Y=0.887
C342	CLK	avC7#2	5.92705e-18	$X=0.3825 $Y=1.0015
C343	avC6#5	avC12#11	1.37177e-17	$X=3.021 $Y=0.8575
C344	avC9#5	gnd!#1	6.5526e-18	$X=4.039 $Y=1.0345
C345	gnd!#17	CLK#5	1.03384e-17	$X=0.4575 $Y=0.556
C346	gnd!#7	avC13#9	2.5351e-18	$X=6.51 $Y=0.6785
C347	avC11#2	Q#3	1.54315e-17	$X=6.019 $Y=1.027
C348	avC10#5	vdd!#1	7.00258e-18	$X=4.6515 $Y=1.3715
C349	CLK#11	avC10#5	1.31716e-18	$X=4.251 $Y=1.3445
C350	avC8#6	CLK#4	1.27893e-18	$X=1.0925 $Y=1.073
C351	avC7#5	avC12	1.13243e-17	$X=1.0825 $Y=1.7965
C352	avC9#5	avC7#14	1.51261e-17	$X=3.8365 $Y=0.847
C353	avC6#5	gnd!#1	4.40396e-18	$X=2.7095 $Y=0.9295
C354	avC12#9	avC6#2	3.23885e-17	$X=2.992 $Y=1.7285
C355	avC7#5	avC12#2	2.71556e-18	$X=1.3395 $Y=1.6325
C356	avC13#6	CLK#16	8.19994e-18	$X=5.2305 $Y=1.9655
C357	avC7#2	vdd!#1	6.38271e-18	$X=0.86 $Y=0.9135
C358	avC12#11	avC9#5	1.81283e-17	$X=3.516 $Y=0.8825
C359	avC8#4	avC6#2	1.39246e-17	$X=2.5495 $Y=1.599
C360	CLK#17	vdd!#12	3.99053e-18	$X=4.209 $Y=1.884
C361	avC9#5	CLK#10	5.12576e-18	$X=3.8855 $Y=1.275
C362	avC6#2	CLK#6	1.83371e-18	$X=2.957 $Y=0.885
C363	avC13#6	Q#2	1.75893e-18	$X=5.4225 $Y=1.94
C364	CLK#8	gnd!#10	3.75061e-18	$X=4.083 $Y=0.466
C365	avC6#2	CLK#9	1.06371e-18	$X=3.432 $Y=1.9845
C366	avC10#2	avC8#8	2.17679e-17	$X=4.653 $Y=0.8
C367	avC12#9	vdd!#15	1.68738e-18	$X=2.7285 $Y=2.1415
C368	gnd!#10	CLK#13	1.61936e-18	$X=4.7505 $Y=0.5425
C369	avC8#6	avC12#5	1.26762e-17	$X=1.778 $Y=0.7815
C370	gnd!#4	avC10#2	1.41922e-17	$X=4.6165 $Y=0.597
C371	CLK#18	avC12#11	1.39555e-17	$X=3.043 $Y=0.8655
C372	vdd!#9	avC13#11	7.7754e-18	$X=6.078 $Y=2.1155
C373	avC13#9	Q#5	1.82886e-17	$X=6.4775 $Y=1.7545
C374	CLK#1	avC7#2	2.40449e-17	$X=0.773 $Y=0.972
C375	CLK#1	gnd!#17	5.44554e-18	$X=0.3605 $Y=0.58
C376	avC11#2	avC13#8	7.1744e-18	$X=6.1965 $Y=0.9195
C377	avC11#2	CLK#13	6.55782e-19	$X=5.382 $Y=0.694
C378	avC9#2	avC10#5	2.58132e-17	$X=4.4025 $Y=1.49
C379	avC11#2	Q#2	3.21564e-18	$X=5.88 $Y=1.4445
C380	avC7#8	avC8#2	3.95449e-18	$X=2.3405 $Y=2.019
C381	gnd!#10	D#3	5.89336e-18	$X=4.2435 $Y=0.6075
C382	avC9#5	avC10#2	2.34698e-17	$X=4.419 $Y=0.902
C383	vdd!#12	avC8#9	1.5554e-17	$X=4.416 $Y=2.1725
C384	avC11#5	vdd!#9	2.0821e-17	$X=5.9175 $Y=2.047
C385	avC6#5	CLK#6	6.18808e-18	$X=2.9075 $Y=0.7095
C386	CLK#15	avC9#2	1.95105e-18	$X=4.578 $Y=1.493
C387	Q#8	gnd!#1	3.20081e-17	$X=7.029 $Y=0.747
C388	CLK#15	Q#5	1.03661e-18	$X=6.0605 $Y=1.7905
C389	avC11#5	Q	4.65885e-18	$X=6.4475 $Y=1.521
C390	gnd!#4	avC9#5	1.30689e-17	$X=4.1335 $Y=0.7295
C391	vdd!#15	avC8#10	8.61386e-18	$X=2.678 $Y=2.228
C392	gnd!#7	Q#8	1.05823e-17	$X=6.7265 $Y=0.604
C393	gnd!#14	avC8#4	4.44403e-18	$X=2.153 $Y=0.6765
C394	avC13#6	avC7#12	2.83057e-17	$X=5.048 $Y=1.7965
C395	avC8#4	avC6#5	7.92746e-18	$X=2.485 $Y=1.085
C396	avC13#2	gnd!#1	1.07883e-17	$X=5.409 $Y=0.667
C397	avC12#7	CLK#9	4.99437e-18	$X=3.554 $Y=2.0515
C398	vdd!#18	CLK#3	1.12266e-17	$X=0.4855 $Y=2.133
C399	avC6#2	avC8#11	4.41837e-18	$X=2.7385 $Y=1.525
C400	vdd!#18	avC7#7	1.07055e-17	$X=0.527 $Y=2.2845
C401	avC6#2	avC12#7	1.40938e-17	$X=3.332 $Y=1.973
C402	avC9#2	avC8#9	9.02504e-18	$X=4.253 $Y=1.811
C403	avC8#2	avC6#2	5.54624e-18	$X=2.415 $Y=1.8975
C404	avC13#6	avC11#5	2.21292e-17	$X=5.4355 $Y=1.697
C405	vdd!#18	avC7#5	1.65998e-17	$X=0.537 $Y=2.0935
C406	vdd!#9	Q#1	5.15633e-18	$X=6.069 $Y=2.3465
C407	avC11#5	vdd!#1	1.1783e-17	$X=5.7405 $Y=1.64
C408	avC11#5	Q#2	2.58147e-17	$X=5.7685 $Y=1.8845
C409	avC6#5	avC12#9	6.57557e-18	$X=2.844 $Y=1.089
C410	avC10#2	avC7#14	8.00357e-19	$X=4.3135 $Y=0.712
C411	avC12#7	avC9#2	1.40938e-17	$X=3.5995 $Y=1.9525
C412	CLK#18	avC6#5	1.87784e-17	$X=2.587 $Y=0.9735
C413	avC7#5	CLK#3	1.6237e-17	$X=0.681 $Y=1.94
C414	avC9#2	vdd!#1	6.48572e-18	$X=4.0855 $Y=1.661
C415	avC6#2	vdd!#1	8.03157e-18	$X=2.887 $Y=1.7835
C416	avC7#2	avC8#6	1.44151e-17	$X=1.273 $Y=0.8735
C417	CLK#8	avC9#5	1.44199e-18	$X=3.61 $Y=0.76
C418	avC7#5	vdd!#1	2.97369e-17	$X=0.8315 $Y=1.837
C419	avC6#2	CLK#10	7.65319e-19	$X=3.432 $Y=1.5575
C420	Q#8	avC13#9	1.25408e-18	$X=6.9065 $Y=0.9015
C421	avC13#4	vdd!#9	2.64537e-18	$X=5.94 $Y=1.9645
C422	CLK#1	avC7#5	6.23119e-18	$X=0.748 $Y=1.6685
C423	avC6#2	avC8#10	1.63279e-17	$X=2.8635 $Y=1.943
C424	avC9#5	avC8#9	1.07319e-18	$X=4.2225 $Y=1.4365
C425	avC8#2	avC12#2	2.46125e-18	$X=2.107 $Y=1.778
C426	avC7#2	avC8#4	1.86196e-18	$X=1.3 $Y=1.0675
C427	CLK#16	avC10#5	3.27774e-18	$X=4.918 $Y=1.715
C428	CLK#17	gnd!#10	2.52087e-18	$X=4.218 $Y=0.6245
C429	avC13#2	avC11#2	6.67273e-18	$X=5.574 $Y=0.7495
C430	avC11#5	avC7#12	2.15347e-18	$X=5.3385 $Y=1.737
C431	CLK#14	avC13#6	1.46489e-17	$X=5.1105 $Y=1.398
C432	D#1	vdd!#12	1.15895e-17	$X=4.2645 $Y=2.3295
C433	CLK#11	avC9#2	3.79575e-17	$X=3.9505 $Y=1.475
C434	avC10#5	CLK#19	1.11947e-18	$X=5.166 $Y=1.8495
C435	gnd!#17	CLK#2	3.45708e-18	$X=0.2625 $Y=0.837
C436	avC12#11	CLK#6	6.11401e-18	$X=3.0685 $Y=0.688
C437	avC9#2	D#1	6.99381e-18	$X=4.095 $Y=2.138
C438	avC6#5	avC12#5	2.976e-18	$X=2.227 $Y=0.807
C439	avC12	avC8#2	1.62274e-17	$X=2.177 $Y=1.916
C440	avC13#2	avC7#13	7.0826e-18	$X=5.452 $Y=0.687
C441	avC7#2	CLK#5	1.11179e-17	$X=0.681 $Y=0.723
C442	gnd!#10	avC10#2	1.05823e-17	$X=4.444 $Y=0.5785
C443	avC12#7	vdd!#5	3.23497e-18	$X=3.413 $Y=2.1685
C444	avC9#2	CLK#9	5.6783e-18	$X=3.795 $Y=1.9575
C445	avC6#2	vdd!#15	1.98677e-17	$X=2.708 $Y=2.0905
C446	avC12#7	avC8#10	2.88101e-18	$X=3.3645 $Y=2.061
C447	avC6#2	vdd!#5	4.48945e-18	$X=2.9705 $Y=2.2
C448	gnd!#7	avC13#10	8.3033e-18	$X=6.6185 $Y=0.5595
C449	CLK#18	avC9#5	1.40626e-18	$X=3.436 $Y=1.056
C450	avC10#2	gnd!#1	3.67418e-18	$X=4.729 $Y=0.7945
C451	gnd!#14	CLK#8	9.51473e-18	$X=2.314 $Y=0.466
C452	avC7#8	vdd!#12	1.7396e-18	$X=4.2015 $Y=2.2545
C453	Q#5	vdd!#1	3.16359e-17	$X=6.3885 $Y=2.0545
C454	avC10#5	vdd!#4	2.88249e-18	$X=4.426 $Y=1.8755
C455	gnd!#17	CLK	1.12441e-17	$X=0.2585 $Y=0.7835
C456	avC8#6	avC12#2	2.82505e-18	$X=1.7435 $Y=1.0945
C457	CLK#8	avC6#5	2.4898e-17	$X=2.792 $Y=0.745
C458	gnd!#14	avC12#5	8.17441e-18	$X=2.0585 $Y=0.587
C459	avC11#5	CLK#16	2.43374e-17	$X=5.6155 $Y=1.903
C460	avC9#5	gnd!#10	1.61009e-17	$X=4.2575 $Y=0.626
C461	avC12#11	gnd!#1	2.9491e-18	$X=3.2495 $Y=0.8055
C462	avC8#6	gnd!#14	1.05823e-17	$X=1.9735 $Y=0.6225
C463	avC9#5	vdd!#1	1.42436e-18	$X=4.036 $Y=1.052
C464	avC13#2	CLK#15	1.22571e-17	$X=5.3965 $Y=0.765
C465	avC7#5	avC8#4	2.43735e-18	$X=1.2985 $Y=1.6495
C466	avC6#5	vdd!#1	2.22836e-18	$X=2.7165 $Y=0.9425
C467	CLK#11	avC6#2	5.15002e-19	$X=3.369 $Y=1.546
C468	gnd!#7	avC7#13	2.49626e-18	$X=6.3545 $Y=0.542
C469	avC8#6	gnd!#1	1.91364e-17	$X=1.6295 $Y=0.852
C470	avC9#5	D#3	1.37204e-17	$X=4.064 $Y=0.9085
C471	avC10#5	avC7#10	1.63622e-17	$X=4.6685 $Y=1.752
C472	avC11#5	vdd!#2	1.86818e-18	$X=5.867 $Y=2.1465
C473	avC11#2	avC13#10	1.66972e-18	$X=6.4875 $Y=0.736
C474	avC10#5	avC8#9	1.85012e-17	$X=4.6075 $Y=1.6015
C475	CLK#18	vdd!#15	7.26228e-19	$X=2.563 $Y=2.0435
C476	vdd!#4	CLK#9	7.73871e-19	$X=3.737 $Y=2.2365
C477	vdd!#9	CLK#20	8.02223e-19	$X=5.6455 $Y=2.343
C478	vdd!#9	CLK#19	9.00483e-19	$X=5.633 $Y=2.1235
C479	vdd!#18	CLK#4	1.34315e-18	$X=0.48 $Y=1.8215
C480	vdd!#12	CLK#9	1.41663e-18	$X=3.979 $Y=2.134
C481	CLK#17	vdd!#1	1.86935e-18	$X=3.7985 $Y=1.145
C482	gnd!#1	CLK#2	3.80867e-19	$X=0.1845 $Y=1.2495
C483	CLK#17	gnd!#1	4.24042e-19	$X=3.7995 $Y=1.124
C484	gnd!#4	CLK#11	4.34778e-19	$X=3.976 $Y=0.976
C485	gnd!#4	CLK#10	5.81355e-19	$X=3.913 $Y=1.127
C486	gnd!#14	CLK#7	8.33021e-19	$X=2.4815 $Y=0.4175
C487	gnd!#14	CLK#6	8.59408e-19	$X=2.6285 $Y=0.57
C488	gnd!#4	CLK#13	9.21663e-19	$X=5.036 $Y=0.527
C489	avC12	vdd!#5	7.90426e-19	$X=2.7 $Y=2.4445
C490	avC12#9	vdd!#4	8.44235e-19	$X=3.6885 $Y=2.356
C491	CLK#11	D#1	2.65494e-19	$X=3.9755 $Y=1.951
C492	CLK#8	D#3	3.84853e-19	$X=3.749 $Y=0.687
C493	avC12#2	gnd!#1	7.98538e-19	$X=1.8995 $Y=1.4245
C494	vdd!#15	avC7#15	8.74274e-19	$X=2.875 $Y=2.059
C495	avC7#10	vdd!#2	9.81381e-19	$X=5.4795 $Y=2.6445
C496	vdd!#15	avC7#9	1.2435e-18	$X=2.973 $Y=2.343
C497	vdd!#12	avC7#11	1.28023e-18	$X=4.7235 $Y=2.3455
C498	vdd!#12	avC7#12	1.33214e-18	$X=4.5975 $Y=2.067
C499	avC13#6	CLK#20	3.59146e-19	$X=5.2965 $Y=2.23
C500	avC13#4	CLK#20	3.98756e-19	$X=5.432 $Y=2.161
C501	CLK#16	avC13#5	7.36545e-19	$X=5.2065 $Y=2.1545
C502	avC13#4	CLK#19	7.95426e-19	$X=5.4275 $Y=1.8505
C503	CLK#3	avC12#2	4.60817e-19	$X=1.0895 $Y=1.7895
C504	avC12#9	CLK#6	4.97691e-19	$X=3.0095 $Y=0.7275
C505	CLK#16	avC8#9	5.54919e-19	$X=4.959 $Y=2.2125
C506	CLK#11	avC8#9	6.5504e-19	$X=4.0695 $Y=1.585
C507	CLK#17	avC8#9	8.83683e-19	$X=4.1135 $Y=1.54
C508	CLK#8	avC8#6	9.0838e-19	$X=2.004 $Y=0.7115
C509	CLK#11	avC8#4	1.0706e-18	$X=3.1255 $Y=1.3405
C510	CLK#11	avC7#15	3.54679e-19	$X=3.5075 $Y=1.586
C511	avC7#2	CLK#2	3.92274e-19	$X=0.416 $Y=1.1255
C512	CLK#18	avC7#7	4.12503e-19	$X=1.6335 $Y=1.844
C513	avC7#5	CLK#2	4.97847e-19	$X=0.3975 $Y=1.447
C514	CLK#18	avC7#8	5.32997e-19	$X=2.669 $Y=1.6825
C515	CLK#11	avC7#14	7.67333e-19	$X=3.7245 $Y=1.0595
C516	CLK#16	avC7#13	7.73183e-19	$X=5.521 $Y=1.6195
C517	CLK#16	avC7#12	1.16298e-18	$X=5.101 $Y=2.0275
C518	avC13#2	avC7#12	5.01504e-19	$X=5.283 $Y=0.982
C519	avC12#11	avC8#11	5.15996e-19	$X=2.974 $Y=1.051
C520	avC12#9	avC8#9	7.80914e-19	$X=4.0095 $Y=1.879
C521	avC7#8	avC8#9	5.61329e-19	$X=4.055 $Y=2.218
C522	avC8#9	avC7#13	5.80851e-19	$X=5.078 $Y=1.4465
C523	avC8#12	avC7#14	7.44344e-19	$X=2.651 $Y=0.6315
C524	avC7#8	avC8#4	9.33639e-19	$X=2.453 $Y=1.7045
C525	CLK	gnd!	3.11103e-18	$X=0.121 $Y=0.3745
C526	Q	gnd!	4.40299e-19	$X=1.2995 $Y=0.2505
C527	avC12#3	gnd!	1.56966e-19	$X=0.6245 $Y=0.4705
C528	avC8#10	gnd!	6.87619e-19	$X=0.3755 $Y=0.236
C529	avC7#15	gnd!	5.56234e-19	$X=0.7235 $Y=0.3605
C530	CLK#9	gnd!	2.24303e-19	$X=1.127 $Y=0.6045
C531	D#2	gnd!	4.1715e-18	$X=0.8985 $Y=0.368
C532	avC8#9	gnd!	5.31974e-18	$X=0.493 $Y=0.1925
C533	avC7#12	gnd!	4.76717e-19	$X=0.8545 $Y=0.293
C534	CLK#19	gnd!	6.55233e-19	$X=1.8775 $Y=0.693
C535	Q#2	gnd!	1.04064e-18	$X=0.848 $Y=0.2935
C536	avC13#11	gnd!	3.45406e-19	$X=1.4545 $Y=0.4375
C537	avC12#5	gnd!	1.8851e-19	$X=0.541 $Y=0.1835
C538	avC7#14	gnd!	6.43278e-19	$X=0.4005 $Y=0.051
C539	D#3	gnd!	6.24807e-18	$X=0.892 $Y=0.168
C540	avC8#8	gnd!	2.00414e-18	$X=1.0695 $Y=0.1755
C541	avC7#13	gnd!	1.27932e-18	$X=0.577 $Y=0.07
C542	Q#3	gnd!	6.55782e-19	$X=1.148 $Y=0.1985
C543	CLK#2	gnd!	7.71025e-19	$X=0.11 $Y=0.367
C544	avC12#2	gnd!	8.0516e-19	$X=0.3875 $Y=0.241
C545	avC8#4	gnd!	6.74058e-19	$X=0.3145 $Y=0.158
C546	CLK#7	gnd!	5.12734e-19	$X=0.7595 $Y=0.0695
C547	avC7#9	gnd!	5.70515e-19	$X=1.106 $Y=0.785
C548	CLK#10	gnd!	4.49552e-19	$X=0.888 $Y=0.307
C549	D#1	gnd!	2.64002e-19	$X=0.8055 $Y=0.4505
C550	avC7#11	gnd!	4.35772e-19	$X=1.6505 $Y=0.786
C551	CLK#14	gnd!	6.15959e-19	$X=0.9715 $Y=0.1895
C552	CLK#20	gnd!	1.11561e-18	$X=1.784 $Y=0.785
C553	avC13#9	gnd!	8.45504e-19	$X=0.899 $Y=0.165
C554	CLK#1	gnd!	1.35641e-18	$X=0.1125 $Y=0.081
C555	avC7#7	gnd!	2.65679e-19	$X=0.1675 $Y=0.2135
C556	avC12	gnd!	6.33262e-19	$X=0.196 $Y=0.104
C557	CLK#8	gnd!	5.61938e-19	$X=0.3605 $Y=0.0335
C558	avC7#8	gnd!	6.78363e-19	$X=0.256 $Y=0.138
C559	avC12#9	gnd!	4.7348e-18	$X=0.291 $Y=0.106
C560	CLK#11	gnd!	6.09812e-19	$X=0.6865 $Y=0.2145
C561	avC7#10	gnd!	2.60937e-19	$X=0.507 $Y=0.2325
C562	CLK#15	gnd!	7.83557e-19	$X=0.575 $Y=0.1175
C563	CLK#16	gnd!	2.82431e-19	$X=0.6045 $Y=0.2325
C564	avC13#4	gnd!	8.81111e-19	$X=0.627 $Y=0.091
C565	avC13#8	gnd!	4.33201e-19	$X=0.914 $Y=0.114
C566	vdd!#1	gnd!	8.15275e-19	$X=0.085 $Y=0.004
C567	avC6	gnd!	7.5875e-20	$X=0.8195 $Y=0.5205
C568	avC7#2	gnd!	6.77454e-19	$X=0.22 $Y=0.1665
C569	CLK#4	gnd!	1.8851e-19	$X=0.1995 $Y=0.296
C570	avC8#2	gnd!	1.62819e-19	$X=0.7025 $Y=0.571
C571	avC6#2	gnd!	1.94086e-19	$X=0.513 $Y=0.2745
C572	avC12#7	gnd!	7.96023e-19	$X=1.357 $Y=0.766
C573	avC12#11	gnd!	1.66871e-18	$X=0.8405 $Y=0.193
C574	avC9#2	gnd!	5.01264e-19	$X=0.6355 $Y=0.2285
C575	avC9#5	gnd!	8.14444e-19	$X=0.6285 $Y=0.143
C576	avC8#11	gnd!	6.90607e-19	$X=0.6075 $Y=0.278
C577	avC10#2	gnd!	4.15998e-18	$X=0.8445 $Y=0.13
C578	avC10#5	gnd!	4.34662e-18	$X=0.8325 $Y=0.223
C579	CLK#17	gnd!	1.07976e-19	$X=0.5065 $Y=0.1285
C580	CLK#18	gnd!	8.37581e-19	$X=0.241 $Y=0.082
C581	avC13#2	gnd!	2.0077e-18	$X=1.894 $Y=0.2265
C582	avC13#6	gnd!	3.45213e-18	$X=0.936 $Y=0.2965
C583	avC11#2	gnd!	2.83811e-19	$X=1.163 $Y=0.1725
C584	Q#5	gnd!	4.33455e-19	$X=1.2085 $Y=0.365
C585	vdd!#2	gnd!	4.17357e-19	$X=0.8905 $Y=0.3745
C586	vdd!#4	gnd!	5.776e-19	$X=0.4365 $Y=0.264
C587	vdd!#9	gnd!	9.67733e-19	$X=1.76 $Y=0.6355
C588	vdd!#12	gnd!	8.92997e-19	$X=1.082 $Y=0.514
C589	vdd!#15	gnd!	1.73337e-19	$X=0.804 $Y=0.6355
*
*
.ENDS lab3_dff_onecell
*
